
This summary file was generated by TurbSim (from OpenFAST-v3.5.3) on 20-Apr-2025 at 11:43:18.


Runtime Options:

1333634118  Random seed #1
    RANLUX  Type of random number generator
         F  Output binary HH turbulence parameters?
         F  Output formatted turbulence parameters?
         F  Output AeroDyn HH files?
         T  Output AeroDyn FF files?
         F  Output BLADED FF files?
         F  Output tower data?
         F  Output HAWC FF files?
         F  Output formatted FF files?
         T  Output coherent turbulence time step file?
 0 -  NONE  IEC turbulence models scaled to exact specified standard deviation


Turbine/Model Specifications:

        37  Vertical grid-point matrix dimension
        35  Horizontal grid-point matrix dimension
     0.250  Time step [seconds]
   900.000  Analysis time [seconds]
   900.000  Usable output time [seconds]
    89.350  Hub height [m]
   167.400  Grid height [m]
   158.100  Grid width [m]
     0.000  Vertical flow angle [degrees]
     0.000  Horizontal flow angle [degrees]


Meteorological Boundary Conditions:

    TIMESR  User-input time series spectral model
       N/A  IEC standard
       N/A  IEC turbulence characteristic
       N/A  IEC turbulence type
       N/A  IEC Extreme Turbulence Model (ETM) "c" parameter [m/s]
       PL   Wind profile type
    90.000  Reference height [m]
    10.000  Reference wind speed [m/s]
       N/A  Jet height [m]
     0.120  Power law exponent
     0.030  Surface roughness length [m]


Non-IEC Meteorological Boundary Conditions:

    45.000  Site latitude [degrees]
     0.050  Gradient Richardson number
     0.480  Friction or shear velocity [m/s]
       N/A  Mixing layer depth [m]
       N/A  Mean hub u'w' Reynolds stress
       N/A  Mean hub u'v' Reynolds stress
       N/A  Mean hub v'w' Reynolds stress


Spatial Coherence Models:

       IEC  u-component coherence model
       IEC  v-component coherence model
       IEC  w-component coherence model
(   12.000, 0.353E-03)  u-component coherence parameters
(   12.000, 0.353E-03)  v-component coherence parameters
(   12.000, 0.353E-03)  w-component coherence parameters
       N/A  Coherence exponent


Coherent Turbulence Scaling Parameters:

.\EventData
            Name of the path containing the coherent turbulence data files
       dns  Type of coherent turbulence data files
     1.000  Disturbance scale (ratio of wave height to rotor diameter)
     0.500  Fractional location of tower centerline from right
     0.500  Fractional location of hub height from the bottom of the dataset
    30.000  Minimum start time for coherent structures [seconds]


Profiles from User-Defined Time-Series Input:

  Height   Wind Speed   Horizontal Angle   Vertical Angle
   (m)        (m/s)          (deg)              (deg)    
  ------   ----------   ----------------   --------------
   94.00      10.00          -0.63                0.00


You have requested that the following file(s) be generated:

   /kfs3/scratch/agupta/Projects/RL_Incubator/FinalRuns_Veer/Seed4/./FFSim_Seed4/Cond00_v10.0_PL0.12_TI2.5/Case3_wdirp06/Seed_4/TurbSim/HighT8.bts (AeroDyn/TurbSim full-field wind file)


Turbulence Simulation Scaling Parameter Summary:

   Turbulence model used                            =  User-input time series
   Gradient Richardson number                       =    0.050
   Monin-Obukhov (M-O) z/L parameter                =    0.067
   Monin-Obukhov (M-O) length scale                 = 1340.250 m
   Mean wind speed at hub height                    =    9.991 m/s

   Wind profile type                                =  Power law
   Power law exponent                               =    0.120
   Mean shear across rotor disk                     =    0.019 (m/s)/m
   Assumed rotor diameter                           =  158.100 m
   Surface roughness length                         =    0.030 m

   Nyquist frequency of turbulent wind field        =    2.000 Hz

   Number of time steps in the FFT                  =     3600
   Number of time steps output                      =     3600
   Number of points simulated                       =     1296


Mean Flow Angles:

   Vertical   =   0.0 degrees
   Horizontal =   0.0 degrees

Mean Wind Speed Profile:

   Height    Wind Speed   Horizontal Angle  Vertical Angle  U-comp (X)   V-comp (Y)   W-comp (Z)
     (m)        (m/s)         (degrees)       (degrees)       (m/s)        (m/s)        (m/s)   
   ------    ----------   ----------------  --------------  ----------   ----------   ----------
    168.4       10.78            0.00            0.00         10.78         0.00         0.00
    163.7       10.74            0.00            0.00         10.74         0.00         0.00
    159.1       10.71            0.00            0.00         10.71         0.00         0.00
    154.4       10.67            0.00            0.00         10.67         0.00         0.00
    149.8       10.63            0.00            0.00         10.63         0.00         0.00
    145.1       10.59            0.00            0.00         10.59         0.00         0.00
    140.5       10.55            0.00            0.00         10.55         0.00         0.00
    135.8       10.51            0.00            0.00         10.51         0.00         0.00
    131.2       10.46            0.00            0.00         10.46         0.00         0.00
    126.5       10.42            0.00            0.00         10.42         0.00         0.00
    121.9       10.37            0.00            0.00         10.37         0.00         0.00
    117.2       10.32            0.00            0.00         10.32         0.00         0.00
    112.6       10.27            0.00            0.00         10.27         0.00         0.00
    107.9       10.22            0.00            0.00         10.22         0.00         0.00
    103.3       10.17            0.00            0.00         10.17         0.00         0.00
     98.6       10.11            0.00            0.00         10.11         0.00         0.00
     94.0       10.05            0.00            0.00         10.05         0.00         0.00
     89.3        9.99            0.00            0.00          9.99         0.00         0.00
     84.7        9.93            0.00            0.00          9.93         0.00         0.00
     80.0        9.86            0.00            0.00          9.86         0.00         0.00
     75.4        9.79            0.00            0.00          9.79         0.00         0.00
     70.7        9.72            0.00            0.00          9.72         0.00         0.00
     66.1        9.64            0.00            0.00          9.64         0.00         0.00
     61.4        9.55            0.00            0.00          9.55         0.00         0.00
     56.8        9.46            0.00            0.00          9.46         0.00         0.00
     52.1        9.37            0.00            0.00          9.37         0.00         0.00
     47.5        9.26            0.00            0.00          9.26         0.00         0.00
     42.8        9.15            0.00            0.00          9.15         0.00         0.00
     38.2        9.02            0.00            0.00          9.02         0.00         0.00
     33.5        8.88            0.00            0.00          8.88         0.00         0.00
     28.9        8.73            0.00            0.00          8.73         0.00         0.00
     24.2        8.54            0.00            0.00          8.54         0.00         0.00
     19.6        8.33            0.00            0.00          8.33         0.00         0.00
     14.9        8.06            0.00            0.00          8.06         0.00         0.00
     10.3        7.71            0.00            0.00          7.71         0.00         0.00
      5.6        7.17            0.00            0.00          7.17         0.00         0.00
      1.0        5.83            0.00            0.00          5.83         0.00         0.00


Harvested Random Seeds after Generation of the Random Numbers:

     65026800 K 1
            0 K 2


Hub-Height Simulated Turbulence Statistical Summary:

   Type of Wind        Min (m/s)   Mean (m/s)    Max (m/s)  Sigma (m/s)       TI (%)
   ----------------    ---------   ----------    ---------  -----------       ------
   Longitudinal (u)         9.21         9.99        10.84        0.284        2.846
   Lateral (v)             -0.69         0.00         0.65        0.192        1.917
   Vertical (w)            -0.42        -0.00         0.34        0.116        1.160
   U component              9.21         9.99        10.84        0.284        2.846
   V component             -0.69         0.00         0.65        0.192        1.917
   W component             -0.42        -0.00         0.34        0.116        1.160
   Horizontal (U&V)         9.21         9.99        10.84        0.284        2.843
   Total                    9.21         9.99        10.84        0.284        2.843

                       Min Reynolds     Mean Reynolds    Max Reynolds    Correlation
   Product             Stress (m/s)^2   Stress (m/s)^2   Stress (m/s)^2  Coefficient
   ----------------    --------------   --------------   --------------  -----------
   u'w'                     -0.223             0.001             0.172         0.031
   u'v'                     -0.354            -0.011             0.175        -0.201
   v'w'                     -0.109            -0.003             0.161        -0.127


   Friction Velocity (Ustar)  =      0.032 m/s
   Maximum Instantaneous TKE  =      0.382 (m/s)^2
   Maximum Instantaneous CTKE =      0.205 (m/s)^2


Grid Point Variance Summary:

   Y-coord  -79.05  -74.40  -69.75  -65.10  -60.45  -55.80  -51.15  -46.50  -41.85  -37.20  -32.55  -27.90  -23.25  -18.60  -13.95   -9.30   -4.65    0.00    4.65    9.30   13.95   18.60   23.25   27.90   32.55   37.20   41.85   46.50   51.15   55.80   60.45   65.10   69.75   74.40   79.05

   Height   Standard deviation at grid points for the u component:
   168.40    0.250   0.266   0.239   0.248   0.234   0.233   0.229   0.238   0.246   0.233   0.252   0.242   0.244   0.260   0.260   0.258   0.249   0.239   0.220   0.223   0.227   0.230   0.224   0.234   0.230   0.224   0.234   0.227   0.246   0.241   0.260   0.253   0.258   0.247   0.253
   163.75    0.265   0.242   0.250   0.235   0.250   0.244   0.250   0.247   0.246   0.229   0.248   0.233   0.236   0.235   0.239   0.230   0.230   0.232   0.218   0.232   0.226   0.229   0.235   0.226   0.237   0.239   0.220   0.226   0.242   0.255   0.268   0.266   0.242   0.255   0.256
   159.10    0.265   0.251   0.230   0.247   0.258   0.242   0.227   0.221   0.230   0.243   0.250   0.230   0.220   0.236   0.229   0.220   0.208   0.204   0.221   0.219   0.227   0.257   0.249   0.240   0.228   0.222   0.228   0.223   0.249   0.253   0.259   0.277   0.252   0.257   0.239
   154.45    0.249   0.253   0.239   0.240   0.243   0.220   0.218   0.222   0.226   0.250   0.261   0.230   0.228   0.223   0.227   0.218   0.225   0.219   0.233   0.216   0.229   0.248   0.242   0.242   0.221   0.224   0.238   0.261   0.269   0.261   0.274   0.279   0.266   0.268   0.251
   149.80    0.257   0.245   0.227   0.229   0.218   0.218   0.227   0.228   0.240   0.236   0.246   0.242   0.232   0.218   0.209   0.209   0.215   0.219   0.219   0.219   0.214   0.219   0.229   0.231   0.219   0.224   0.235   0.256   0.268   0.261   0.264   0.279   0.275   0.284   0.265
   145.15    0.267   0.251   0.236   0.246   0.209   0.218   0.236   0.243   0.238   0.223   0.231   0.229   0.224   0.215   0.212   0.208   0.199   0.209   0.222   0.218   0.212   0.197   0.216   0.226   0.220   0.218   0.235   0.252   0.261   0.263   0.264   0.290   0.297   0.292   0.275
   140.50    0.244   0.259   0.262   0.252   0.220   0.213   0.225   0.234   0.221   0.220   0.210   0.219   0.204   0.197   0.202   0.207   0.210   0.212   0.212   0.221   0.201   0.193   0.197   0.219   0.211   0.216   0.238   0.260   0.260   0.285   0.281   0.295   0.313   0.282   0.285
   135.85    0.256   0.270   0.272   0.243   0.224   0.226   0.228   0.224   0.228   0.205   0.191   0.201   0.194   0.196   0.206   0.191   0.194   0.203   0.217   0.209   0.188   0.192   0.201   0.218   0.212   0.222   0.245   0.248   0.257   0.278   0.278   0.296   0.299   0.281   0.265
   131.20    0.278   0.285   0.262   0.257   0.243   0.230   0.225   0.222   0.225   0.211   0.202   0.198   0.194   0.194   0.199   0.200   0.203   0.212   0.193   0.199   0.201   0.202   0.209   0.218   0.216   0.210   0.226   0.246   0.248   0.279   0.298   0.294   0.297   0.281   0.289
   126.55    0.261   0.264   0.267   0.244   0.246   0.246   0.243   0.224   0.229   0.225   0.213   0.193   0.198   0.192   0.198   0.201   0.199   0.205   0.208   0.193   0.212   0.208   0.205   0.218   0.228   0.215   0.221   0.252   0.259   0.271   0.283   0.282   0.288   0.280   0.277
   121.90    0.242   0.254   0.259   0.246   0.253   0.240   0.242   0.244   0.234   0.222   0.217   0.203   0.194   0.200   0.205   0.195   0.204   0.206   0.207   0.224   0.220   0.234   0.209   0.214   0.228   0.240   0.235   0.235   0.256   0.257   0.277   0.261   0.280   0.259   0.281
   117.25    0.243   0.243   0.246   0.248   0.256   0.252   0.234   0.245   0.251   0.250   0.223   0.225   0.208   0.196   0.199   0.214   0.230   0.226   0.233   0.217   0.219   0.220   0.218   0.205   0.211   0.223   0.234   0.239   0.254   0.258   0.277   0.258   0.277   0.282   0.268
   112.60    0.240   0.251   0.256   0.244   0.247   0.232   0.241   0.250   0.258   0.246   0.243   0.216   0.209   0.210   0.209   0.228   0.240   0.238   0.231   0.207   0.217   0.200   0.212   0.221   0.219   0.225   0.229   0.233   0.257   0.249   0.273   0.281   0.279   0.262   0.255
   107.95    0.257   0.271   0.240   0.237   0.241   0.257   0.254   0.259   0.255   0.262   0.240   0.242   0.230   0.233   0.240   0.240   0.259   0.250   0.237   0.219   0.202   0.185   0.199   0.220   0.214   0.208   0.223   0.240   0.252   0.249   0.282   0.299   0.306   0.283   0.265
   103.30    0.267   0.277   0.243   0.237   0.249   0.261   0.239   0.233   0.231   0.246   0.229   0.223   0.236   0.245   0.245   0.254   0.255   0.259   0.236   0.217   0.220   0.200   0.179   0.202   0.204   0.229   0.247   0.256   0.258   0.275   0.283   0.295   0.279   0.298   0.290
    98.65    0.275   0.272   0.256   0.239   0.271   0.261   0.240   0.235   0.230   0.246   0.240   0.243   0.251   0.252   0.278   0.268   0.261   0.254   0.252   0.238   0.216   0.227   0.222   0.211   0.207   0.225   0.242   0.249   0.256   0.274   0.279   0.290   0.287   0.283   0.283
    94.00    0.266   0.251   0.248   0.267   0.277   0.262   0.256   0.260   0.251   0.261   0.252   0.254   0.275   0.275   0.282   0.300   0.274   0.271   0.261   0.274   0.236   0.249   0.249   0.254   0.221   0.236   0.256   0.255   0.269   0.282   0.280   0.277   0.277   0.278   0.274
    89.35    0.262   0.264   0.281   0.278   0.263   0.275   0.272   0.250   0.257   0.252   0.260   0.271   0.260   0.283   0.296   0.280   0.294   0.284   0.265   0.276   0.252   0.234   0.244   0.237   0.227   0.221   0.243   0.253   0.272   0.284   0.266   0.259   0.263   0.285   0.273
    84.70    0.251   0.277   0.277   0.259   0.271   0.263   0.265   0.258   0.248   0.269   0.263   0.256   0.254   0.273   0.310   0.280   0.282   0.292   0.280   0.279   0.256   0.245   0.245   0.219   0.212   0.230   0.250   0.267   0.248   0.255   0.276   0.259   0.263   0.268   0.283
    80.05    0.261   0.264   0.247   0.254   0.257   0.271   0.258   0.245   0.277   0.284   0.282   0.269   0.280   0.291   0.323   0.303   0.279   0.265   0.285   0.294   0.266   0.255   0.256   0.241   0.238   0.242   0.247   0.266   0.272   0.253   0.258   0.257   0.259   0.265   0.284
    75.40    0.266   0.263   0.239   0.251   0.255   0.247   0.270   0.255   0.246   0.279   0.276   0.268   0.293   0.318   0.321   0.306   0.291   0.269   0.290   0.284   0.284   0.277   0.255   0.258   0.252   0.261   0.274   0.275   0.262   0.256   0.257   0.270   0.265   0.262   0.285
    70.75    0.267   0.244   0.256   0.246   0.260   0.253   0.256   0.280   0.277   0.289   0.280   0.297   0.294   0.312   0.325   0.299   0.301   0.295   0.287   0.286   0.288   0.273   0.265   0.280   0.267   0.257   0.269   0.269   0.241   0.251   0.251   0.265   0.234   0.243   0.263
    66.10    0.268   0.260   0.276   0.260   0.255   0.279   0.266   0.267   0.272   0.284   0.296   0.298   0.297   0.308   0.313   0.320   0.291   0.279   0.309   0.300   0.281   0.255   0.265   0.279   0.283   0.290   0.272   0.254   0.260   0.254   0.244   0.249   0.245   0.246   0.253
    61.45    0.294   0.273   0.285   0.278   0.274   0.282   0.288   0.297   0.272   0.301   0.325   0.308   0.291   0.301   0.342   0.326   0.329   0.310   0.305   0.303   0.298   0.270   0.251   0.263   0.287   0.301   0.269   0.261   0.265   0.265   0.271   0.256   0.248   0.248   0.261
    56.80    0.288   0.274   0.284   0.285   0.309   0.306   0.300   0.290   0.289   0.288   0.318   0.312   0.315   0.333   0.365   0.366   0.329   0.287   0.297   0.288   0.284   0.271   0.276   0.268   0.284   0.307   0.281   0.271   0.282   0.272   0.276   0.275   0.291   0.284   0.279
    52.15    0.264   0.257   0.307   0.320   0.330   0.318   0.295   0.279   0.274   0.278   0.305   0.344   0.333   0.367   0.373   0.349   0.324   0.321   0.296   0.301   0.291   0.266   0.260   0.286   0.300   0.310   0.277   0.277   0.284   0.290   0.296   0.313   0.289   0.281   0.297
    47.50    0.267   0.279   0.312   0.324   0.332   0.319   0.290   0.309   0.294   0.290   0.319   0.345   0.353   0.376   0.378   0.331   0.334   0.304   0.299   0.299   0.271   0.264   0.266   0.302   0.303   0.295   0.278   0.273   0.306   0.329   0.333   0.342   0.323   0.304   0.302
    42.85    0.269   0.290   0.300   0.312   0.290   0.289   0.300   0.273   0.308   0.308   0.340   0.364   0.371   0.384   0.374   0.340   0.341   0.316   0.266   0.283   0.282   0.282   0.294   0.315   0.288   0.304   0.285   0.282   0.315   0.319   0.301   0.326   0.316   0.339   0.309
    38.20    0.271   0.265   0.282   0.289   0.281   0.271   0.283   0.270   0.298   0.318   0.338   0.360   0.332   0.356   0.357   0.351   0.345   0.308   0.282   0.290   0.279   0.288   0.281   0.296   0.281   0.285   0.310   0.304   0.319   0.308   0.308   0.306   0.332   0.335   0.326
    33.55    0.237   0.261   0.264   0.274   0.277   0.267   0.267   0.266   0.282   0.295   0.332   0.345   0.353   0.362   0.335   0.319   0.317   0.290   0.306   0.308   0.309   0.308   0.282   0.277   0.278   0.271   0.278   0.313   0.330   0.306   0.330   0.319   0.340   0.350   0.332
    28.90    0.251   0.247   0.244   0.267   0.256   0.265   0.237   0.244   0.278   0.282   0.328   0.342   0.345   0.336   0.331   0.323   0.308   0.288   0.301   0.327   0.333   0.321   0.293   0.302   0.301   0.290   0.282   0.314   0.339   0.331   0.315   0.334   0.319   0.326   0.351
    24.25    0.268   0.259   0.275   0.266   0.258   0.266   0.251   0.238   0.260   0.300   0.323   0.316   0.326   0.312   0.321   0.327   0.290   0.295   0.278   0.315   0.327   0.317   0.319   0.293   0.282   0.295   0.298   0.306   0.347   0.363   0.338   0.331   0.325   0.344   0.330
    19.60    0.260   0.284   0.264   0.277   0.271   0.245   0.239   0.254   0.281   0.299   0.308   0.326   0.317   0.329   0.334   0.314   0.288   0.282   0.293   0.310   0.330   0.333   0.307   0.280   0.284   0.310   0.317   0.340   0.349   0.340   0.352   0.351   0.338   0.318   0.333
    14.95    0.274   0.269   0.246   0.245   0.245   0.229   0.255   0.256   0.283   0.286   0.309   0.315   0.304   0.304   0.319   0.334   0.321   0.285   0.279   0.305   0.311   0.329   0.313   0.290   0.283   0.308   0.335   0.355   0.349   0.332   0.331   0.344   0.332   0.315   0.309
    10.30    0.270   0.250   0.253   0.250   0.237   0.227   0.245   0.251   0.270   0.285   0.290   0.290   0.308   0.310   0.332   0.326   0.298   0.279   0.294   0.303   0.314   0.321   0.314   0.276   0.277   0.276   0.313   0.347   0.339   0.364   0.328   0.316   0.348   0.332   0.302
     5.65    0.275   0.242   0.242   0.244   0.223   0.223   0.241   0.237   0.265   0.262   0.284   0.273   0.285   0.297   0.308   0.304   0.267   0.295   0.309   0.310   0.320   0.288   0.295   0.279   0.257   0.258   0.301   0.329   0.353   0.363   0.325   0.322   0.338   0.350   0.328
     1.00    0.259   0.256   0.243   0.238   0.222   0.238   0.236   0.235   0.256   0.275   0.278   0.295   0.279   0.301   0.307   0.286   0.263   0.272   0.300   0.278   0.291   0.277   0.261   0.269   0.267   0.270   0.288   0.313   0.331   0.338   0.308   0.287   0.305   0.335   0.313

   Height   Standard deviation at grid points for the v component:
   168.40    0.183   0.198   0.197   0.200   0.195   0.194   0.193   0.192   0.187   0.189   0.191   0.195   0.196   0.189   0.181   0.181   0.196   0.184   0.186   0.187   0.182   0.174   0.179   0.182   0.176   0.191   0.186   0.178   0.177   0.178   0.182   0.186   0.172   0.181   0.176
   163.75    0.194   0.201   0.195   0.192   0.176   0.192   0.203   0.196   0.190   0.200   0.195   0.183   0.198   0.191   0.186   0.196   0.199   0.181   0.183   0.191   0.181   0.183   0.181   0.190   0.193   0.187   0.187   0.176   0.180   0.170   0.177   0.178   0.176   0.188   0.179
   159.10    0.191   0.203   0.201   0.196   0.185   0.194   0.186   0.191   0.197   0.190   0.199   0.199   0.188   0.193   0.204   0.202   0.197   0.202   0.197   0.191   0.186   0.185   0.171   0.183   0.188   0.186   0.177   0.173   0.168   0.166   0.167   0.177   0.180   0.183   0.195
   154.45    0.194   0.187   0.187   0.180   0.181   0.181   0.187   0.187   0.191   0.186   0.192   0.193   0.209   0.200   0.194   0.209   0.205   0.208   0.202   0.202   0.187   0.183   0.184   0.179   0.186   0.187   0.176   0.171   0.172   0.170   0.172   0.170   0.179   0.184   0.194
   149.80    0.179   0.177   0.182   0.177   0.183   0.183   0.185   0.191   0.193   0.188   0.185   0.203   0.206   0.195   0.192   0.199   0.197   0.200   0.196   0.196   0.185   0.190   0.183   0.189   0.189   0.183   0.171   0.179   0.170   0.170   0.166   0.171   0.184   0.187   0.195
   145.15    0.184   0.179   0.183   0.173   0.167   0.166   0.172   0.175   0.187   0.195   0.191   0.205   0.196   0.188   0.201   0.201   0.211   0.197   0.203   0.187   0.196   0.187   0.182   0.188   0.187   0.190   0.171   0.169   0.169   0.180   0.183   0.178   0.195   0.193   0.191
   140.50    0.170   0.174   0.176   0.172   0.172   0.169   0.168   0.171   0.185   0.196   0.196   0.191   0.193   0.189   0.193   0.203   0.199   0.196   0.198   0.190   0.190   0.195   0.193   0.185   0.181   0.184   0.179   0.182   0.194   0.187   0.175   0.186   0.191   0.197   0.188
   135.85    0.168   0.171   0.173   0.166   0.161   0.166   0.163   0.184   0.191   0.191   0.191   0.194   0.198   0.190   0.196   0.198   0.206   0.203   0.193   0.195   0.187   0.183   0.180   0.184   0.186   0.182   0.187   0.190   0.192   0.189   0.186   0.183   0.189   0.186   0.193
   131.20    0.167   0.174   0.171   0.163   0.157   0.163   0.175   0.181   0.185   0.190   0.192   0.181   0.192   0.192   0.200   0.200   0.195   0.198   0.194   0.193   0.183   0.186   0.184   0.178   0.175   0.180   0.179   0.192   0.174   0.186   0.183   0.178   0.190   0.193   0.192
   126.55    0.171   0.166   0.162   0.169   0.164   0.162   0.177   0.186   0.190   0.182   0.184   0.187   0.180   0.195   0.200   0.205   0.196   0.196   0.180   0.180   0.184   0.178   0.180   0.175   0.174   0.176   0.177   0.183   0.181   0.182   0.184   0.185   0.186   0.196   0.187
   121.90    0.174   0.175   0.167   0.172   0.182   0.175   0.186   0.182   0.188   0.189   0.189   0.188   0.191   0.200   0.195   0.206   0.189   0.178   0.189   0.183   0.186   0.186   0.172   0.178   0.170   0.179   0.179   0.179   0.174   0.176   0.183   0.176   0.179   0.193   0.194
   117.25    0.173   0.177   0.183   0.186   0.187   0.189   0.187   0.188   0.189   0.185   0.183   0.193   0.182   0.194   0.189   0.196   0.186   0.182   0.178   0.184   0.184   0.188   0.179   0.184   0.180   0.192   0.179   0.176   0.177   0.171   0.174   0.175   0.177   0.187   0.186
   112.60    0.189   0.172   0.181   0.186   0.196   0.195   0.193   0.191   0.189   0.181   0.203   0.197   0.191   0.181   0.187   0.187   0.177   0.177   0.187   0.195   0.189   0.184   0.183   0.192   0.198   0.202   0.179   0.183   0.185   0.181   0.180   0.181   0.177   0.174   0.178
   107.95    0.184   0.173   0.186   0.194   0.194   0.196   0.199   0.206   0.199   0.187   0.192   0.190   0.182   0.185   0.178   0.186   0.186   0.188   0.201   0.202   0.195   0.201   0.201   0.201   0.198   0.205   0.195   0.191   0.187   0.180   0.180   0.180   0.168   0.170   0.184
   103.30    0.184   0.182   0.192   0.190   0.189   0.192   0.192   0.185   0.187   0.197   0.194   0.196   0.181   0.175   0.180   0.177   0.192   0.195   0.196   0.201   0.202   0.208   0.214   0.213   0.223   0.198   0.197   0.189   0.189   0.191   0.188   0.177   0.162   0.168   0.179
    98.65    0.181   0.183   0.180   0.193   0.188   0.189   0.182   0.188   0.181   0.192   0.196   0.191   0.183   0.185   0.189   0.186   0.192   0.198   0.199   0.207   0.210   0.210   0.216   0.225   0.227   0.211   0.196   0.191   0.190   0.191   0.187   0.183   0.172   0.168   0.176
    94.00    0.176   0.194   0.191   0.185   0.189   0.186   0.175   0.181   0.190   0.194   0.186   0.183   0.181   0.192   0.200   0.187   0.190   0.191   0.202   0.216   0.207   0.209   0.219   0.214   0.211   0.211   0.204   0.198   0.199   0.200   0.195   0.182   0.178   0.176   0.175
    89.35    0.195   0.200   0.202   0.200   0.181   0.182   0.184   0.181   0.191   0.176   0.176   0.174   0.170   0.183   0.187   0.191   0.189   0.192   0.207   0.211   0.211   0.217   0.222   0.223   0.204   0.223   0.213   0.206   0.207   0.201   0.190   0.175   0.183   0.188   0.188
    84.70    0.201   0.197   0.203   0.195   0.186   0.181   0.172   0.180   0.173   0.181   0.181   0.176   0.168   0.167   0.180   0.185   0.186   0.198   0.201   0.209   0.209   0.220   0.218   0.215   0.223   0.214   0.207   0.216   0.198   0.194   0.194   0.186   0.190   0.197   0.186
    80.05    0.198   0.205   0.192   0.195   0.189   0.187   0.175   0.165   0.170   0.183   0.173   0.181   0.162   0.178   0.175   0.186   0.187   0.194   0.206   0.202   0.213   0.215   0.213   0.219   0.212   0.210   0.204   0.206   0.198   0.199   0.199   0.200   0.191   0.186   0.187
    75.40    0.195   0.201   0.194   0.195   0.189   0.188   0.183   0.169   0.165   0.171   0.176   0.174   0.178   0.179   0.168   0.170   0.189   0.181   0.207   0.222   0.214   0.208   0.207   0.198   0.201   0.193   0.204   0.211   0.205   0.217   0.221   0.213   0.192   0.186   0.175
    70.75    0.206   0.201   0.193   0.195   0.183   0.185   0.175   0.169   0.163   0.169   0.174   0.178   0.180   0.190   0.169   0.182   0.184   0.193   0.204   0.212   0.203   0.203   0.202   0.198   0.200   0.205   0.207   0.220   0.225   0.221   0.217   0.203   0.208   0.201   0.193
    66.10    0.206   0.205   0.195   0.194   0.195   0.184   0.176   0.175   0.166   0.175   0.181   0.182   0.190   0.182   0.178   0.173   0.188   0.198   0.209   0.214   0.200   0.201   0.205   0.214   0.206   0.216   0.208   0.219   0.224   0.230   0.229   0.221   0.201   0.204   0.197
    61.45    0.204   0.210   0.203   0.185   0.179   0.187   0.174   0.182   0.175   0.180   0.176   0.184   0.185   0.186   0.179   0.179   0.181   0.185   0.186   0.197   0.196   0.206   0.205   0.217   0.217   0.214   0.217   0.231   0.228   0.232   0.232   0.218   0.205   0.199   0.199
    56.80    0.205   0.200   0.191   0.200   0.180   0.177   0.172   0.177   0.183   0.172   0.178   0.189   0.184   0.185   0.186   0.179   0.178   0.176   0.181   0.186   0.193   0.200   0.204   0.211   0.214   0.214   0.221   0.224   0.241   0.235   0.216   0.218   0.216   0.199   0.197
    52.15    0.207   0.198   0.201   0.189   0.183   0.175   0.177   0.169   0.163   0.174   0.178   0.183   0.189   0.180   0.184   0.181   0.182   0.188   0.179   0.179   0.193   0.204   0.207   0.220   0.208   0.215   0.213   0.222   0.229   0.217   0.218   0.219   0.204   0.193   0.187
    47.50    0.203   0.198   0.201   0.185   0.182   0.177   0.176   0.171   0.176   0.169   0.173   0.172   0.191   0.188   0.187   0.191   0.188   0.183   0.176   0.185   0.194   0.210   0.212   0.219   0.224   0.213   0.215   0.210   0.218   0.222   0.216   0.215   0.211   0.202   0.189
    42.85    0.196   0.198   0.198   0.196   0.184   0.188   0.175   0.178   0.174   0.172   0.170   0.177   0.186   0.179   0.184   0.184   0.186   0.181   0.173   0.176   0.192   0.212   0.214   0.207   0.210   0.207   0.217   0.206   0.223   0.222   0.212   0.214   0.207   0.202   0.189
    38.20    0.202   0.197   0.203   0.202   0.195   0.195   0.183   0.175   0.178   0.173   0.166   0.182   0.182   0.179   0.172   0.177   0.177   0.165   0.172   0.169   0.179   0.201   0.212   0.205   0.196   0.200   0.204   0.211   0.210   0.218   0.214   0.215   0.217   0.199   0.184
    33.55    0.202   0.190   0.206   0.198   0.208   0.201   0.196   0.178   0.168   0.178   0.177   0.191   0.189   0.178   0.171   0.183   0.178   0.173   0.176   0.175   0.186   0.201   0.209   0.196   0.203   0.204   0.203   0.216   0.211   0.211   0.226   0.212   0.201   0.196   0.200
    28.90    0.196   0.194   0.198   0.201   0.204   0.202   0.194   0.189   0.172   0.173   0.175   0.191   0.198   0.191   0.186   0.186   0.189   0.190   0.189   0.178   0.177   0.194   0.196   0.197   0.198   0.198   0.206   0.206   0.211   0.212   0.218   0.219   0.203   0.199   0.198
    24.25    0.193   0.187   0.189   0.192   0.189   0.187   0.187   0.181   0.182   0.182   0.183   0.205   0.197   0.191   0.188   0.183   0.191   0.189   0.186   0.179   0.177   0.179   0.195   0.196   0.206   0.219   0.212   0.215   0.216   0.212   0.218   0.224   0.213   0.212   0.209
    19.60    0.195   0.190   0.186   0.193   0.184   0.192   0.192   0.182   0.192   0.189   0.185   0.199   0.211   0.208   0.211   0.207   0.203   0.200   0.201   0.191   0.182   0.191   0.207   0.205   0.207   0.215   0.209   0.212   0.207   0.212   0.215   0.221   0.202   0.208   0.205
    14.95    0.194   0.192   0.188   0.196   0.188   0.185   0.182   0.181   0.184   0.188   0.189   0.199   0.201   0.205   0.208   0.202   0.208   0.204   0.190   0.188   0.195   0.200   0.198   0.202   0.208   0.209   0.203   0.211   0.219   0.220   0.222   0.223   0.210   0.214   0.213
    10.30    0.190   0.197   0.188   0.188   0.179   0.185   0.200   0.189   0.188   0.189   0.192   0.181   0.193   0.197   0.192   0.198   0.209   0.203   0.193   0.185   0.191   0.199   0.205   0.213   0.210   0.206   0.210   0.209   0.222   0.236   0.233   0.214   0.215   0.211   0.206
     5.65    0.194   0.202   0.196   0.181   0.177   0.191   0.196   0.195   0.196   0.191   0.184   0.194   0.189   0.196   0.203   0.206   0.208   0.193   0.199   0.211   0.199   0.205   0.209   0.215   0.208   0.210   0.210   0.217   0.228   0.222   0.224   0.210   0.207   0.215   0.205
     1.00    0.194   0.189   0.182   0.176   0.181   0.190   0.198   0.193   0.195   0.191   0.185   0.178   0.184   0.192   0.197   0.201   0.206   0.208   0.206   0.202   0.208   0.206   0.208   0.208   0.213   0.220   0.211   0.213   0.221   0.219   0.222   0.209   0.209   0.214   0.200

   Height   Standard deviation at grid points for the w component:
   168.40    0.124   0.120   0.124   0.127   0.131   0.134   0.129   0.135   0.142   0.133   0.135   0.126   0.122   0.121   0.123   0.124   0.123   0.116   0.115   0.117   0.115   0.118   0.118   0.119   0.122   0.119   0.118   0.116   0.116   0.121   0.122   0.121   0.123   0.121   0.120
   163.75    0.125   0.125   0.126   0.128   0.128   0.131   0.132   0.138   0.135   0.130   0.129   0.125   0.126   0.121   0.121   0.118   0.121   0.121   0.121   0.120   0.120   0.117   0.118   0.121   0.124   0.123   0.121   0.118   0.122   0.124   0.123   0.122   0.124   0.126   0.119
   159.10    0.129   0.128   0.124   0.130   0.129   0.128   0.130   0.132   0.135   0.135   0.131   0.132   0.127   0.121   0.120   0.123   0.125   0.121   0.121   0.120   0.118   0.116   0.119   0.116   0.120   0.126   0.125   0.123   0.127   0.122   0.120   0.123   0.123   0.124   0.119
   154.45    0.127   0.124   0.129   0.130   0.132   0.123   0.127   0.129   0.131   0.130   0.128   0.123   0.124   0.125   0.125   0.125   0.126   0.125   0.118   0.120   0.119   0.115   0.117   0.120   0.124   0.125   0.126   0.131   0.129   0.127   0.126   0.122   0.121   0.121   0.124
   149.80    0.125   0.128   0.127   0.126   0.131   0.126   0.129   0.124   0.125   0.130   0.129   0.124   0.120   0.119   0.120   0.119   0.122   0.120   0.121   0.119   0.115   0.110   0.118   0.118   0.121   0.119   0.128   0.131   0.127   0.125   0.124   0.121   0.124   0.119   0.122
   145.15    0.125   0.122   0.128   0.130   0.124   0.128   0.135   0.131   0.126   0.129   0.125   0.125   0.120   0.121   0.116   0.116   0.119   0.117   0.117   0.115   0.114   0.114   0.118   0.120   0.117   0.120   0.129   0.128   0.127   0.129   0.125   0.123   0.125   0.121   0.116
   140.50    0.123   0.125   0.129   0.131   0.133   0.130   0.129   0.132   0.128   0.131   0.123   0.123   0.128   0.122   0.116   0.120   0.119   0.118   0.117   0.115   0.115   0.114   0.114   0.121   0.116   0.122   0.127   0.131   0.134   0.127   0.126   0.123   0.123   0.121   0.121
   135.85    0.125   0.123   0.130   0.133   0.134   0.135   0.128   0.131   0.129   0.126   0.120   0.121   0.123   0.120   0.115   0.116   0.116   0.116   0.118   0.117   0.116   0.116   0.117   0.117   0.113   0.121   0.124   0.131   0.128   0.124   0.122   0.125   0.125   0.122   0.126
   131.20    0.125   0.126   0.130   0.132   0.132   0.131   0.130   0.127   0.129   0.128   0.122   0.118   0.120   0.116   0.117   0.116   0.115   0.115   0.119   0.118   0.117   0.113   0.115   0.117   0.120   0.127   0.132   0.129   0.127   0.125   0.125   0.126   0.125   0.124   0.127
   126.55    0.125   0.129   0.131   0.127   0.134   0.135   0.131   0.125   0.127   0.123   0.120   0.115   0.116   0.114   0.117   0.116   0.111   0.111   0.113   0.118   0.118   0.111   0.114   0.119   0.127   0.130   0.128   0.127   0.125   0.128   0.127   0.125   0.127   0.125   0.123
   121.90    0.125   0.129   0.131   0.134   0.135   0.133   0.127   0.127   0.132   0.127   0.121   0.120   0.120   0.118   0.116   0.114   0.114   0.112   0.110   0.114   0.118   0.112   0.120   0.124   0.124   0.127   0.128   0.129   0.127   0.130   0.125   0.125   0.127   0.126   0.126
   117.25    0.124   0.131   0.126   0.134   0.134   0.137   0.132   0.126   0.125   0.123   0.128   0.123   0.119   0.123   0.117   0.120   0.116   0.115   0.114   0.118   0.119   0.120   0.120   0.127   0.127   0.124   0.126   0.128   0.123   0.128   0.123   0.123   0.128   0.121   0.126
   112.60    0.126   0.128   0.131   0.127   0.128   0.130   0.134   0.129   0.127   0.127   0.130   0.126   0.124   0.120   0.124   0.120   0.116   0.112   0.117   0.117   0.115   0.121   0.122   0.124   0.125   0.122   0.118   0.122   0.124   0.122   0.127   0.127   0.124   0.121   0.124
   107.95    0.126   0.123   0.126   0.127   0.130   0.136   0.132   0.133   0.126   0.128   0.132   0.124   0.122   0.124   0.122   0.121   0.119   0.118   0.118   0.115   0.119   0.116   0.120   0.116   0.117   0.118   0.122   0.121   0.123   0.126   0.129   0.127   0.122   0.121   0.121
   103.30    0.123   0.121   0.128   0.128   0.129   0.133   0.131   0.135   0.132   0.131   0.127   0.123   0.122   0.122   0.119   0.114   0.117   0.120   0.120   0.116   0.118   0.118   0.118   0.116   0.116   0.116   0.122   0.121   0.123   0.122   0.124   0.120   0.122   0.119   0.120
    98.65    0.123   0.130   0.128   0.120   0.128   0.134   0.136   0.130   0.132   0.131   0.127   0.124   0.122   0.118   0.119   0.116   0.118   0.121   0.122   0.117   0.114   0.116   0.117   0.117   0.118   0.113   0.117   0.117   0.121   0.122   0.125   0.123   0.122   0.121   0.121
    94.00    0.128   0.126   0.126   0.131   0.129   0.134   0.134   0.132   0.126   0.127   0.128   0.124   0.122   0.121   0.118   0.118   0.118   0.120   0.117   0.115   0.117   0.115   0.118   0.114   0.112   0.116   0.116   0.123   0.122   0.122   0.119   0.123   0.116   0.114   0.120
    89.35    0.123   0.122   0.123   0.125   0.131   0.131   0.135   0.132   0.129   0.125   0.124   0.117   0.119   0.119   0.120   0.118   0.117   0.116   0.110   0.112   0.113   0.114   0.116   0.116   0.114   0.110   0.115   0.117   0.118   0.118   0.117   0.114   0.117   0.112   0.113
    84.70    0.123   0.120   0.120   0.120   0.126   0.127   0.131   0.123   0.124   0.126   0.123   0.116   0.116   0.113   0.119   0.119   0.117   0.116   0.110   0.116   0.112   0.111   0.114   0.116   0.114   0.115   0.111   0.115   0.119   0.118   0.119   0.117   0.115   0.114   0.114
    80.05    0.119   0.118   0.120   0.120   0.125   0.122   0.127   0.120   0.122   0.117   0.116   0.112   0.114   0.116   0.122   0.117   0.114   0.114   0.113   0.115   0.115   0.113   0.113   0.114   0.114   0.111   0.113   0.115   0.117   0.118   0.119   0.114   0.116   0.115   0.114
    75.40    0.118   0.119   0.118   0.117   0.120   0.121   0.114   0.117   0.118   0.118   0.114   0.113   0.117   0.115   0.114   0.117   0.112   0.112   0.115   0.114   0.114   0.111   0.113   0.113   0.112   0.113   0.112   0.114   0.114   0.113   0.113   0.112   0.113   0.113   0.114
    70.75    0.117   0.119   0.119   0.115   0.114   0.121   0.119   0.116   0.115   0.115   0.116   0.116   0.113   0.109   0.107   0.111   0.110   0.115   0.114   0.110   0.107   0.111   0.112   0.114   0.115   0.118   0.119   0.114   0.114   0.111   0.115   0.112   0.114   0.119   0.117
    66.10    0.117   0.114   0.118   0.116   0.119   0.120   0.120   0.116   0.114   0.113   0.115   0.114   0.114   0.108   0.107   0.107   0.110   0.114   0.113   0.114   0.112   0.113   0.111   0.113   0.117   0.119   0.117   0.120   0.116   0.115   0.115   0.117   0.116   0.118   0.117
    61.45    0.120   0.118   0.119   0.122   0.120   0.122   0.119   0.115   0.112   0.112   0.111   0.109   0.109   0.108   0.107   0.109   0.107   0.113   0.114   0.108   0.110   0.118   0.117   0.116   0.117   0.117   0.118   0.118   0.115   0.116   0.120   0.120   0.118   0.119   0.118
    56.80    0.116   0.116   0.121   0.119   0.118   0.119   0.116   0.118   0.113   0.115   0.107   0.113   0.112   0.113   0.111   0.112   0.111   0.115   0.117   0.114   0.118   0.121   0.116   0.116   0.113   0.119   0.119   0.119   0.114   0.118   0.123   0.118   0.116   0.118   0.116
    52.15    0.123   0.117   0.122   0.119   0.118   0.117   0.120   0.116   0.121   0.116   0.115   0.117   0.120   0.112   0.109   0.108   0.113   0.111   0.116   0.111   0.115   0.118   0.116   0.116   0.116   0.117   0.117   0.122   0.119   0.115   0.117   0.114   0.120   0.115   0.113
    47.50    0.123   0.121   0.117   0.118   0.117   0.118   0.118   0.119   0.124   0.122   0.118   0.117   0.119   0.116   0.114   0.109   0.112   0.110   0.113   0.110   0.111   0.113   0.116   0.116   0.116   0.121   0.119   0.124   0.119   0.117   0.120   0.113   0.115   0.114   0.113
    42.85    0.125   0.118   0.116   0.115   0.112   0.121   0.121   0.121   0.119   0.120   0.121   0.118   0.119   0.118   0.117   0.115   0.113   0.115   0.110   0.108   0.113   0.114   0.115   0.119   0.115   0.118   0.122   0.121   0.118   0.117   0.118   0.115   0.115   0.113   0.115
    38.20    0.126   0.121   0.121   0.115   0.117   0.120   0.119   0.116   0.120   0.118   0.123   0.118   0.117   0.121   0.120   0.116   0.120   0.114   0.114   0.109   0.114   0.116   0.121   0.120   0.115   0.117   0.122   0.116   0.115   0.115   0.115   0.115   0.115   0.118   0.114
    33.55    0.124   0.125   0.124   0.118   0.115   0.113   0.119   0.114   0.117   0.122   0.121   0.118   0.112   0.118   0.117   0.118   0.112   0.114   0.113   0.114   0.118   0.118   0.120   0.119   0.117   0.119   0.118   0.120   0.120   0.118   0.119   0.118   0.114   0.119   0.119
    28.90    0.129   0.125   0.123   0.116   0.116   0.119   0.117   0.115   0.115   0.121   0.123   0.116   0.113   0.113   0.115   0.113   0.114   0.118   0.116   0.119   0.114   0.116   0.121   0.116   0.116   0.121   0.119   0.120   0.119   0.116   0.115   0.113   0.115   0.116   0.114
    24.25    0.122   0.121   0.124   0.119   0.115   0.119   0.118   0.118   0.124   0.120   0.122   0.122   0.119   0.109   0.111   0.112   0.116   0.116   0.117   0.120   0.119   0.120   0.121   0.115   0.118   0.120   0.119   0.119   0.118   0.111   0.113   0.111   0.113   0.111   0.113
    19.60    0.121   0.121   0.119   0.117   0.118   0.122   0.119   0.120   0.119   0.119   0.117   0.118   0.115   0.114   0.116   0.117   0.118   0.120   0.119   0.120   0.122   0.119   0.120   0.117   0.120   0.119   0.118   0.112   0.109   0.111   0.109   0.110   0.109   0.118   0.115
    14.95    0.125   0.122   0.120   0.119   0.119   0.124   0.122   0.124   0.121   0.113   0.118   0.114   0.118   0.115   0.114   0.118   0.121   0.121   0.118   0.123   0.124   0.117   0.121   0.123   0.121   0.119   0.111   0.107   0.106   0.106   0.111   0.109   0.114   0.120   0.117
    10.30    0.127   0.123   0.122   0.120   0.120   0.117   0.118   0.119   0.120   0.115   0.117   0.114   0.117   0.119   0.117   0.122   0.126   0.119   0.125   0.124   0.124   0.123   0.117   0.118   0.118   0.115   0.115   0.113   0.107   0.113   0.112   0.113   0.119   0.120   0.117
     5.65    0.126   0.125   0.123   0.121   0.114   0.112   0.112   0.117   0.120   0.120   0.117   0.120   0.125   0.124   0.121   0.118   0.126   0.121   0.122   0.126   0.118   0.119   0.118   0.118   0.116   0.120   0.116   0.115   0.115   0.111   0.113   0.115   0.115   0.118   0.118
     1.00    0.121   0.122   0.124   0.120   0.115   0.112   0.110   0.116   0.120   0.125   0.125   0.121   0.126   0.125   0.128   0.126   0.129   0.126   0.128   0.123   0.121   0.115   0.115   0.118   0.116   0.119   0.115   0.111   0.115   0.110   0.111   0.114   0.115   0.119   0.118

   Mean standard deviation across all grid points:
      u component:    0.267 m/s
      v component:    0.192 m/s
      w component:    0.120 m/s


U-component (X) statistics from the interpolated hub point:

   Mean =   9.9913 m/s
   TI   =   2.8465 %


Processing complete.  5601.1 CPU seconds used.
