
This summary file was generated by TurbSim (from OpenFAST-v3.5.3) on 20-Apr-2025 at 11:37:24.


Runtime Options:

1333634118  Random seed #1
    RANLUX  Type of random number generator
         F  Output binary HH turbulence parameters?
         F  Output formatted turbulence parameters?
         F  Output AeroDyn HH files?
         T  Output AeroDyn FF files?
         F  Output BLADED FF files?
         F  Output tower data?
         F  Output HAWC FF files?
         F  Output formatted FF files?
         T  Output coherent turbulence time step file?
 0 -  NONE  IEC turbulence models scaled to exact specified standard deviation


Turbine/Model Specifications:

        37  Vertical grid-point matrix dimension
        35  Horizontal grid-point matrix dimension
     0.250  Time step [seconds]
   900.000  Analysis time [seconds]
   900.000  Usable output time [seconds]
    89.350  Hub height [m]
   167.400  Grid height [m]
   158.100  Grid width [m]
     0.000  Vertical flow angle [degrees]
     0.000  Horizontal flow angle [degrees]


Meteorological Boundary Conditions:

    TIMESR  User-input time series spectral model
       N/A  IEC standard
       N/A  IEC turbulence characteristic
       N/A  IEC turbulence type
       N/A  IEC Extreme Turbulence Model (ETM) "c" parameter [m/s]
       PL   Wind profile type
    90.000  Reference height [m]
    10.000  Reference wind speed [m/s]
       N/A  Jet height [m]
     0.120  Power law exponent
     0.030  Surface roughness length [m]


Non-IEC Meteorological Boundary Conditions:

    45.000  Site latitude [degrees]
     0.050  Gradient Richardson number
     0.480  Friction or shear velocity [m/s]
       N/A  Mixing layer depth [m]
       N/A  Mean hub u'w' Reynolds stress
       N/A  Mean hub u'v' Reynolds stress
       N/A  Mean hub v'w' Reynolds stress


Spatial Coherence Models:

       IEC  u-component coherence model
       IEC  v-component coherence model
       IEC  w-component coherence model
(   12.000, 0.353E-03)  u-component coherence parameters
(   12.000, 0.353E-03)  v-component coherence parameters
(   12.000, 0.353E-03)  w-component coherence parameters
       N/A  Coherence exponent


Coherent Turbulence Scaling Parameters:

.\EventData
            Name of the path containing the coherent turbulence data files
       dns  Type of coherent turbulence data files
     1.000  Disturbance scale (ratio of wave height to rotor diameter)
     0.500  Fractional location of tower centerline from right
     0.500  Fractional location of hub height from the bottom of the dataset
    30.000  Minimum start time for coherent structures [seconds]


Profiles from User-Defined Time-Series Input:

  Height   Wind Speed   Horizontal Angle   Vertical Angle
   (m)        (m/s)          (deg)              (deg)    
  ------   ----------   ----------------   --------------
   94.00      10.00          -0.63               -0.00


You have requested that the following file(s) be generated:

   /kfs3/scratch/agupta/Projects/RL_Incubator/FinalRuns_Veer/Seed4/./FFSim_Seed4/Cond00_v10.0_PL0.12_TI4.0/Case3_wdirp06/Seed_4/TurbSim/HighT3.bts (AeroDyn/TurbSim full-field wind file)


Turbulence Simulation Scaling Parameter Summary:

   Turbulence model used                            =  User-input time series
   Gradient Richardson number                       =    0.050
   Monin-Obukhov (M-O) z/L parameter                =    0.067
   Monin-Obukhov (M-O) length scale                 = 1340.250 m
   Mean wind speed at hub height                    =    9.991 m/s

   Wind profile type                                =  Power law
   Power law exponent                               =    0.120
   Mean shear across rotor disk                     =    0.019 (m/s)/m
   Assumed rotor diameter                           =  158.100 m
   Surface roughness length                         =    0.030 m

   Nyquist frequency of turbulent wind field        =    2.000 Hz

   Number of time steps in the FFT                  =     3600
   Number of time steps output                      =     3600
   Number of points simulated                       =     1296


Mean Flow Angles:

   Vertical   =   0.0 degrees
   Horizontal =   0.0 degrees

Mean Wind Speed Profile:

   Height    Wind Speed   Horizontal Angle  Vertical Angle  U-comp (X)   V-comp (Y)   W-comp (Z)
     (m)        (m/s)         (degrees)       (degrees)       (m/s)        (m/s)        (m/s)   
   ------    ----------   ----------------  --------------  ----------   ----------   ----------
    168.4       10.78            0.00            0.00         10.78         0.00         0.00
    163.7       10.74            0.00            0.00         10.74         0.00         0.00
    159.1       10.71            0.00            0.00         10.71         0.00         0.00
    154.4       10.67            0.00            0.00         10.67         0.00         0.00
    149.8       10.63            0.00            0.00         10.63         0.00         0.00
    145.1       10.59            0.00            0.00         10.59         0.00         0.00
    140.5       10.55            0.00            0.00         10.55         0.00         0.00
    135.8       10.51            0.00            0.00         10.51         0.00         0.00
    131.2       10.46            0.00            0.00         10.46         0.00         0.00
    126.5       10.42            0.00            0.00         10.42         0.00         0.00
    121.9       10.37            0.00            0.00         10.37         0.00         0.00
    117.2       10.32            0.00            0.00         10.32         0.00         0.00
    112.6       10.27            0.00            0.00         10.27         0.00         0.00
    107.9       10.22            0.00            0.00         10.22         0.00         0.00
    103.3       10.17            0.00            0.00         10.17         0.00         0.00
     98.6       10.11            0.00            0.00         10.11         0.00         0.00
     94.0       10.05            0.00            0.00         10.05         0.00         0.00
     89.3        9.99            0.00            0.00          9.99         0.00         0.00
     84.7        9.93            0.00            0.00          9.93         0.00         0.00
     80.0        9.86            0.00            0.00          9.86         0.00         0.00
     75.4        9.79            0.00            0.00          9.79         0.00         0.00
     70.7        9.72            0.00            0.00          9.72         0.00         0.00
     66.1        9.64            0.00            0.00          9.64         0.00         0.00
     61.4        9.55            0.00            0.00          9.55         0.00         0.00
     56.8        9.46            0.00            0.00          9.46         0.00         0.00
     52.1        9.37            0.00            0.00          9.37         0.00         0.00
     47.5        9.26            0.00            0.00          9.26         0.00         0.00
     42.8        9.15            0.00            0.00          9.15         0.00         0.00
     38.2        9.02            0.00            0.00          9.02         0.00         0.00
     33.5        8.88            0.00            0.00          8.88         0.00         0.00
     28.9        8.73            0.00            0.00          8.73         0.00         0.00
     24.2        8.54            0.00            0.00          8.54         0.00         0.00
     19.6        8.33            0.00            0.00          8.33         0.00         0.00
     14.9        8.06            0.00            0.00          8.06         0.00         0.00
     10.3        7.71            0.00            0.00          7.71         0.00         0.00
      5.6        7.17            0.00            0.00          7.17         0.00         0.00
      1.0        5.83            0.00            0.00          5.83         0.00         0.00


Harvested Random Seeds after Generation of the Random Numbers:

     65026800 K 1
            0 K 2


Hub-Height Simulated Turbulence Statistical Summary:

   Type of Wind        Min (m/s)   Mean (m/s)    Max (m/s)  Sigma (m/s)       TI (%)
   ----------------    ---------   ----------    ---------  -----------       ------
   Longitudinal (u)         9.05         9.99        11.14        0.349        3.492
   Lateral (v)             -0.96        -0.00         0.93        0.287        2.869
   Vertical (w)            -0.56         0.00         0.58        0.186        1.866
   U component              9.05         9.99        11.14        0.349        3.492
   V component             -0.96        -0.00         0.93        0.287        2.869
   W component             -0.56         0.00         0.58        0.186        1.866
   Horizontal (U&V)         9.05        10.00        11.14        0.349        3.488
   Total                    9.05        10.00        11.15        0.349        3.488

                       Min Reynolds     Mean Reynolds    Max Reynolds    Correlation
   Product             Stress (m/s)^2   Stress (m/s)^2   Stress (m/s)^2  Coefficient
   ----------------    --------------   --------------   --------------  -----------
   u'w'                     -0.462             0.002             0.340         0.032
   u'v'                     -0.666             0.015             0.472         0.146
   v'w'                     -0.349            -0.005             0.300        -0.094


   Friction Velocity (Ustar)  =      0.046 m/s
   Maximum Instantaneous TKE  =      0.736 (m/s)^2
   Maximum Instantaneous CTKE =      0.346 (m/s)^2


Grid Point Variance Summary:

   Y-coord  -79.05  -74.40  -69.75  -65.10  -60.45  -55.80  -51.15  -46.50  -41.85  -37.20  -32.55  -27.90  -23.25  -18.60  -13.95   -9.30   -4.65    0.00    4.65    9.30   13.95   18.60   23.25   27.90   32.55   37.20   41.85   46.50   51.15   55.80   60.45   65.10   69.75   74.40   79.05

   Height   Standard deviation at grid points for the u component:
   168.40    0.309   0.315   0.305   0.296   0.312   0.302   0.296   0.330   0.335   0.330   0.358   0.349   0.365   0.388   0.372   0.400   0.393   0.409   0.406   0.405   0.413   0.421   0.402   0.403   0.388   0.396   0.405   0.373   0.379   0.366   0.363   0.352   0.355   0.319   0.333
   163.75    0.317   0.314   0.310   0.303   0.305   0.314   0.310   0.331   0.356   0.354   0.376   0.372   0.390   0.379   0.400   0.420   0.403   0.392   0.412   0.405   0.417   0.414   0.413   0.395   0.379   0.390   0.364   0.345   0.370   0.382   0.383   0.361   0.335   0.340   0.365
   159.10    0.317   0.319   0.311   0.313   0.331   0.332   0.341   0.343   0.339   0.375   0.387   0.393   0.389   0.387   0.412   0.422   0.385   0.388   0.408   0.405   0.398   0.448   0.425   0.391   0.369   0.358   0.373   0.353   0.371   0.383   0.371   0.379   0.369   0.373   0.388
   154.45    0.334   0.330   0.338   0.322   0.329   0.341   0.356   0.350   0.356   0.400   0.408   0.393   0.406   0.382   0.379   0.404   0.403   0.406   0.414   0.411   0.416   0.435   0.407   0.411   0.390   0.388   0.383   0.382   0.378   0.374   0.371   0.385   0.379   0.376   0.387
   149.80    0.341   0.341   0.337   0.335   0.335   0.350   0.377   0.381   0.401   0.403   0.391   0.371   0.379   0.366   0.362   0.384   0.405   0.400   0.406   0.415   0.391   0.396   0.417   0.387   0.360   0.358   0.361   0.343   0.334   0.358   0.368   0.389   0.388   0.405   0.402
   145.15    0.356   0.355   0.338   0.335   0.333   0.356   0.370   0.380   0.399   0.389   0.380   0.371   0.377   0.391   0.411   0.389   0.372   0.393   0.380   0.407   0.405   0.363   0.384   0.381   0.360   0.369   0.373   0.360   0.372   0.372   0.376   0.377   0.388   0.399   0.391
   140.50    0.351   0.357   0.337   0.330   0.333   0.358   0.345   0.365   0.376   0.379   0.378   0.387   0.366   0.377   0.406   0.396   0.369   0.383   0.365   0.376   0.379   0.374   0.358   0.339   0.352   0.365   0.357   0.378   0.388   0.386   0.363   0.391   0.415   0.401   0.394
   135.85    0.355   0.346   0.359   0.364   0.353   0.355   0.363   0.368   0.403   0.379   0.361   0.355   0.345   0.381   0.393   0.353   0.330   0.341   0.360   0.367   0.356   0.355   0.342   0.345   0.359   0.360   0.343   0.365   0.368   0.346   0.366   0.396   0.407   0.394   0.397
   131.20    0.360   0.353   0.356   0.357   0.363   0.373   0.367   0.373   0.387   0.396   0.374   0.371   0.353   0.370   0.375   0.349   0.336   0.328   0.359   0.387   0.376   0.364   0.339   0.350   0.337   0.335   0.336   0.337   0.350   0.372   0.368   0.390   0.427   0.410   0.398
   126.55    0.357   0.343   0.362   0.360   0.361   0.352   0.350   0.372   0.385   0.390   0.394   0.362   0.361   0.376   0.369   0.365   0.348   0.355   0.373   0.379   0.397   0.382   0.373   0.340   0.349   0.344   0.344   0.364   0.348   0.348   0.372   0.390   0.399   0.404   0.387
   121.90    0.348   0.346   0.363   0.367   0.380   0.377   0.373   0.378   0.383   0.415   0.399   0.354   0.340   0.390   0.369   0.360   0.364   0.372   0.371   0.370   0.389   0.385   0.381   0.363   0.373   0.365   0.365   0.359   0.362   0.357   0.372   0.377   0.386   0.363   0.394
   117.25    0.330   0.353   0.359   0.376   0.378   0.357   0.373   0.382   0.415   0.407   0.384   0.366   0.353   0.371   0.368   0.389   0.372   0.407   0.404   0.392   0.389   0.386   0.373   0.362   0.364   0.383   0.379   0.390   0.369   0.361   0.364   0.381   0.413   0.393   0.374
   112.60    0.331   0.334   0.348   0.351   0.346   0.365   0.363   0.377   0.402   0.421   0.398   0.358   0.380   0.362   0.337   0.376   0.396   0.398   0.396   0.369   0.382   0.356   0.366   0.392   0.391   0.396   0.400   0.379   0.384   0.353   0.366   0.393   0.408   0.391   0.362
   107.95    0.330   0.350   0.344   0.359   0.361   0.358   0.379   0.361   0.376   0.381   0.387   0.374   0.379   0.350   0.344   0.381   0.404   0.372   0.374   0.348   0.369   0.379   0.402   0.394   0.395   0.403   0.380   0.382   0.392   0.373   0.379   0.385   0.394   0.380   0.344
   103.30    0.361   0.384   0.362   0.360   0.375   0.381   0.378   0.382   0.392   0.390   0.365   0.343   0.360   0.365   0.368   0.365   0.376   0.393   0.375   0.359   0.375   0.378   0.399   0.399   0.414   0.419   0.394   0.374   0.372   0.347   0.350   0.371   0.365   0.374   0.353
    98.65    0.364   0.400   0.397   0.368   0.399   0.391   0.415   0.395   0.393   0.367   0.347   0.346   0.341   0.349   0.345   0.353   0.360   0.373   0.392   0.385   0.374   0.377   0.402   0.401   0.406   0.417   0.393   0.400   0.387   0.358   0.340   0.360   0.355   0.358   0.391
    94.00    0.390   0.400   0.397   0.383   0.403   0.397   0.414   0.394   0.385   0.361   0.357   0.341   0.323   0.349   0.348   0.369   0.369   0.367   0.370   0.384   0.366   0.387   0.410   0.388   0.391   0.406   0.413   0.407   0.369   0.351   0.358   0.376   0.401   0.378   0.405
    89.35    0.369   0.390   0.410   0.404   0.396   0.407   0.396   0.380   0.366   0.370   0.341   0.354   0.331   0.340   0.351   0.350   0.351   0.349   0.356   0.378   0.370   0.366   0.384   0.402   0.399   0.410   0.408   0.379   0.376   0.361   0.360   0.369   0.379   0.369   0.394
    84.70    0.353   0.393   0.397   0.398   0.416   0.411   0.384   0.370   0.375   0.388   0.365   0.337   0.332   0.340   0.352   0.332   0.323   0.346   0.339   0.351   0.344   0.377   0.363   0.388   0.391   0.396   0.396   0.387   0.373   0.370   0.385   0.376   0.384   0.374   0.402
    80.05    0.375   0.382   0.394   0.397   0.427   0.393   0.385   0.389   0.388   0.380   0.364   0.353   0.346   0.353   0.351   0.355   0.341   0.349   0.317   0.306   0.330   0.357   0.389   0.406   0.404   0.397   0.413   0.419   0.370   0.372   0.388   0.403   0.392   0.378   0.408
    75.40    0.377   0.377   0.373   0.386   0.397   0.385   0.398   0.360   0.358   0.383   0.370   0.326   0.327   0.345   0.365   0.358   0.371   0.354   0.318   0.321   0.317   0.343   0.383   0.382   0.391   0.387   0.411   0.415   0.389   0.359   0.392   0.407   0.393   0.388   0.410
    70.75    0.368   0.378   0.385   0.397   0.404   0.413   0.375   0.380   0.380   0.369   0.373   0.360   0.340   0.356   0.388   0.374   0.381   0.357   0.322   0.341   0.324   0.350   0.352   0.369   0.385   0.384   0.420   0.425   0.386   0.345   0.371   0.388   0.388   0.390   0.427
    66.10    0.406   0.404   0.413   0.411   0.433   0.408   0.372   0.375   0.383   0.376   0.388   0.367   0.360   0.375   0.396   0.394   0.377   0.359   0.330   0.341   0.351   0.363   0.368   0.350   0.368   0.400   0.380   0.407   0.397   0.388   0.372   0.385   0.386   0.365   0.384
    61.45    0.426   0.423   0.413   0.438   0.409   0.407   0.398   0.381   0.380   0.388   0.388   0.369   0.359   0.388   0.385   0.405   0.385   0.375   0.331   0.334   0.356   0.360   0.356   0.359   0.344   0.365   0.378   0.380   0.393   0.393   0.390   0.424   0.404   0.407   0.408
    56.80    0.438   0.399   0.410   0.417   0.442   0.414   0.374   0.374   0.372   0.385   0.377   0.360   0.368   0.393   0.363   0.390   0.396   0.363   0.363   0.348   0.369   0.377   0.366   0.355   0.348   0.366   0.392   0.398   0.404   0.417   0.427   0.446   0.428   0.432   0.443
    52.15    0.419   0.413   0.406   0.405   0.419   0.404   0.373   0.362   0.359   0.373   0.381   0.375   0.354   0.368   0.372   0.383   0.382   0.371   0.365   0.358   0.375   0.373   0.367   0.362   0.351   0.389   0.382   0.375   0.398   0.400   0.446   0.445   0.418   0.439   0.440
    47.50    0.422   0.419   0.409   0.388   0.399   0.428   0.396   0.407   0.376   0.357   0.367   0.377   0.373   0.364   0.386   0.381   0.372   0.352   0.358   0.366   0.377   0.372   0.383   0.357   0.373   0.377   0.377   0.371   0.394   0.427   0.454   0.457   0.464   0.435   0.419
    42.85    0.411   0.400   0.403   0.410   0.407   0.421   0.411   0.390   0.366   0.329   0.367   0.367   0.357   0.364   0.379   0.339   0.333   0.344   0.328   0.355   0.381   0.396   0.404   0.383   0.377   0.386   0.379   0.371   0.386   0.413   0.444   0.459   0.458   0.472   0.436
    38.20    0.390   0.405   0.409   0.398   0.398   0.424   0.416   0.401   0.383   0.359   0.377   0.391   0.377   0.348   0.341   0.320   0.352   0.338   0.351   0.371   0.378   0.387   0.361   0.381   0.361   0.385   0.394   0.402   0.398   0.418   0.435   0.448   0.478   0.483   0.461
    33.55    0.386   0.411   0.400   0.409   0.411   0.409   0.427   0.419   0.375   0.385   0.412   0.398   0.378   0.353   0.331   0.334   0.358   0.366   0.369   0.378   0.373   0.388   0.364   0.387   0.380   0.414   0.379   0.380   0.415   0.450   0.465   0.467   0.476   0.475   0.452
    28.90    0.366   0.372   0.367   0.406   0.392   0.409   0.412   0.412   0.402   0.401   0.412   0.372   0.370   0.338   0.321   0.320   0.332   0.365   0.361   0.364   0.358   0.381   0.392   0.393   0.411   0.387   0.401   0.392   0.439   0.477   0.461   0.469   0.452   0.465   0.467
    24.25    0.332   0.348   0.375   0.377   0.387   0.410   0.417   0.402   0.399   0.410   0.393   0.357   0.336   0.331   0.324   0.331   0.346   0.342   0.345   0.358   0.369   0.374   0.375   0.384   0.388   0.382   0.401   0.416   0.441   0.467   0.470   0.469   0.497   0.500   0.462
    19.60    0.323   0.344   0.347   0.369   0.370   0.385   0.405   0.401   0.407   0.395   0.365   0.366   0.341   0.348   0.314   0.330   0.349   0.344   0.351   0.340   0.381   0.381   0.380   0.390   0.370   0.379   0.394   0.402   0.429   0.471   0.473   0.490   0.466   0.455   0.469
    14.95    0.350   0.358   0.349   0.360   0.372   0.379   0.415   0.393   0.402   0.373   0.358   0.364   0.355   0.343   0.343   0.341   0.340   0.322   0.341   0.354   0.368   0.386   0.384   0.399   0.387   0.379   0.398   0.406   0.414   0.443   0.470   0.461   0.466   0.467   0.455
    10.30    0.340   0.335   0.370   0.356   0.377   0.371   0.369   0.386   0.372   0.382   0.389   0.353   0.361   0.347   0.359   0.359   0.349   0.320   0.331   0.356   0.354   0.372   0.374   0.363   0.360   0.379   0.407   0.398   0.429   0.444   0.436   0.452   0.457   0.445   0.439
     5.65    0.343   0.327   0.349   0.359   0.354   0.370   0.365   0.351   0.371   0.369   0.386   0.356   0.348   0.326   0.340   0.338   0.343   0.352   0.369   0.360   0.344   0.355   0.372   0.375   0.348   0.356   0.367   0.414   0.434   0.443   0.421   0.435   0.423   0.446   0.443
     1.00    0.341   0.345   0.353   0.353   0.352   0.350   0.342   0.327   0.331   0.358   0.361   0.352   0.362   0.360   0.347   0.337   0.343   0.342   0.356   0.354   0.365   0.364   0.372   0.361   0.374   0.361   0.388   0.397   0.413   0.399   0.414   0.412   0.406   0.418   0.453

   Height   Standard deviation at grid points for the v component:
   168.40    0.293   0.308   0.295   0.308   0.302   0.283   0.272   0.288   0.287   0.293   0.291   0.291   0.304   0.309   0.322   0.331   0.319   0.323   0.329   0.307   0.306   0.300   0.302   0.283   0.284   0.284   0.286   0.278   0.268   0.274   0.274   0.274   0.250   0.273   0.263
   163.75    0.290   0.294   0.292   0.282   0.270   0.286   0.290   0.301   0.293   0.317   0.302   0.286   0.306   0.306   0.321   0.325   0.326   0.321   0.327   0.317   0.310   0.316   0.319   0.312   0.293   0.285   0.290   0.279   0.267   0.265   0.272   0.276   0.277   0.288   0.274
   159.10    0.286   0.289   0.292   0.282   0.279   0.300   0.300   0.315   0.307   0.308   0.310   0.315   0.299   0.314   0.321   0.322   0.300   0.341   0.326   0.321   0.302   0.318   0.300   0.297   0.293   0.277   0.284   0.269   0.256   0.256   0.268   0.274   0.281   0.278   0.273
   154.45    0.292   0.274   0.284   0.290   0.296   0.299   0.310   0.320   0.308   0.307   0.301   0.292   0.306   0.300   0.302   0.331   0.324   0.346   0.347   0.327   0.320   0.310   0.315   0.291   0.296   0.290   0.276   0.258   0.269   0.272   0.271   0.275   0.280   0.278   0.286
   149.80    0.279   0.280   0.278   0.285   0.300   0.300   0.307   0.319   0.332   0.318   0.295   0.293   0.308   0.289   0.302   0.311   0.333   0.357   0.349   0.318   0.314   0.337   0.308   0.303   0.310   0.308   0.286   0.273   0.273   0.270   0.260   0.280   0.286   0.275   0.285
   145.15    0.300   0.281   0.295   0.284   0.289   0.284   0.289   0.300   0.310   0.319   0.298   0.292   0.291   0.283   0.294   0.315   0.337   0.335   0.341   0.312   0.335   0.329   0.312   0.309   0.295   0.282   0.277   0.273   0.245   0.262   0.266   0.275   0.285   0.267   0.278
   140.50    0.285   0.276   0.280   0.286   0.289   0.296   0.288   0.274   0.292   0.299   0.301   0.294   0.290   0.288   0.298   0.311   0.319   0.320   0.333   0.328   0.319   0.321   0.309   0.296   0.289   0.277   0.284   0.272   0.265   0.260   0.267   0.275   0.279   0.281   0.292
   135.85    0.286   0.288   0.286   0.295   0.282   0.286   0.280   0.298   0.295   0.294   0.289   0.295   0.306   0.295   0.316   0.292   0.307   0.312   0.320   0.319   0.302   0.305   0.297   0.290   0.279   0.274   0.261   0.280   0.279   0.268   0.273   0.267   0.277   0.283   0.308
   131.20    0.276   0.285   0.283   0.284   0.288   0.281   0.286   0.289   0.295   0.304   0.319   0.292   0.301   0.309   0.319   0.291   0.296   0.314   0.315   0.334   0.296   0.300   0.295   0.277   0.264   0.253   0.258   0.270   0.249   0.260   0.271   0.269   0.283   0.297   0.304
   126.55    0.264   0.266   0.279   0.295   0.272   0.272   0.296   0.299   0.314   0.308   0.313   0.302   0.307   0.305   0.318   0.317   0.318   0.314   0.314   0.321   0.307   0.298   0.287   0.285   0.268   0.272   0.258   0.266   0.267   0.255   0.273   0.285   0.285   0.295   0.294
   121.90    0.261   0.277   0.267   0.287   0.290   0.294   0.310   0.312   0.324   0.320   0.323   0.318   0.315   0.325   0.314   0.343   0.334   0.326   0.324   0.309   0.324   0.302   0.292   0.279   0.268   0.272   0.264   0.274   0.268   0.268   0.275   0.277   0.290   0.292   0.312
   117.25    0.269   0.288   0.292   0.296   0.284   0.287   0.300   0.304   0.318   0.308   0.318   0.309   0.299   0.324   0.318   0.328   0.329   0.324   0.324   0.337   0.313   0.293   0.297   0.308   0.285   0.278   0.267   0.263   0.267   0.252   0.264   0.277   0.275   0.297   0.302
   112.60    0.293   0.285   0.299   0.306   0.299   0.306   0.305   0.298   0.303   0.320   0.328   0.336   0.321   0.299   0.334   0.325   0.315   0.300   0.302   0.321   0.314   0.291   0.294   0.299   0.286   0.278   0.278   0.270   0.285   0.274   0.268   0.269   0.286   0.299   0.297
   107.95    0.288   0.282   0.299   0.316   0.307   0.313   0.317   0.323   0.309   0.299   0.315   0.312   0.302   0.308   0.324   0.320   0.331   0.311   0.305   0.308   0.315   0.306   0.296   0.280   0.277   0.289   0.279   0.282   0.278   0.265   0.271   0.277   0.288   0.294   0.291
   103.30    0.281   0.294   0.300   0.306   0.312   0.327   0.324   0.323   0.308   0.324   0.314   0.309   0.315   0.308   0.324   0.320   0.323   0.311   0.294   0.297   0.293   0.294   0.270   0.281   0.294   0.289   0.301   0.280   0.281   0.282   0.299   0.293   0.278   0.278   0.298
    98.65    0.282   0.286   0.281   0.310   0.318   0.324   0.328   0.328   0.317   0.324   0.327   0.315   0.309   0.325   0.320   0.304   0.316   0.306   0.301   0.291   0.298   0.290   0.265   0.295   0.298   0.293   0.273   0.284   0.276   0.293   0.296   0.300   0.290   0.279   0.289
    94.00    0.278   0.290   0.317   0.302   0.317   0.317   0.317   0.325   0.316   0.306   0.300   0.305   0.304   0.316   0.315   0.308   0.299   0.294   0.289   0.287   0.288   0.287   0.306   0.299   0.302   0.291   0.290   0.281   0.289   0.292   0.288   0.298   0.292   0.299   0.283
    89.35    0.301   0.317   0.318   0.328   0.315   0.310   0.330   0.325   0.326   0.297   0.297   0.284   0.292   0.304   0.305   0.303   0.293   0.287   0.288   0.280   0.295   0.305   0.301   0.324   0.294   0.301   0.286   0.285   0.278   0.289   0.283   0.288   0.296   0.301   0.287
    84.70    0.318   0.310   0.330   0.345   0.324   0.332   0.327   0.316   0.301   0.306   0.309   0.301   0.299   0.305   0.306   0.295   0.294   0.293   0.302   0.295   0.288   0.297   0.295   0.309   0.291   0.284   0.289   0.283   0.271   0.279   0.287   0.289   0.293   0.287   0.284
    80.05    0.312   0.331   0.327   0.341   0.329   0.332   0.345   0.315   0.307   0.311   0.301   0.318   0.303   0.316   0.313   0.320   0.296   0.285   0.281   0.287   0.281   0.287   0.305   0.313   0.289   0.284   0.287   0.284   0.278   0.279   0.290   0.286   0.279   0.281   0.280
    75.40    0.329   0.322   0.327   0.332   0.326   0.312   0.324   0.310   0.317   0.315   0.320   0.322   0.327   0.322   0.294   0.305   0.299   0.294   0.275   0.292   0.294   0.279   0.303   0.295   0.284   0.289   0.284   0.292   0.271   0.307   0.306   0.300   0.289   0.288   0.273
    70.75    0.331   0.312   0.313   0.320   0.306   0.305   0.314   0.320   0.313   0.329   0.329   0.317   0.315   0.320   0.307   0.299   0.295   0.294   0.290   0.310   0.308   0.298   0.291   0.298   0.295   0.290   0.297   0.320   0.305   0.314   0.315   0.303   0.291   0.289   0.284
    66.10    0.339   0.338   0.329   0.318   0.336   0.330   0.321   0.320   0.318   0.325   0.333   0.333   0.333   0.323   0.294   0.289   0.302   0.293   0.299   0.314   0.302   0.307   0.302   0.302   0.296   0.297   0.290   0.314   0.312   0.324   0.335   0.334   0.299   0.294   0.271
    61.45    0.348   0.347   0.341   0.326   0.327   0.318   0.331   0.312   0.308   0.326   0.329   0.325   0.303   0.307   0.284   0.287   0.298   0.285   0.297   0.304   0.294   0.305   0.301   0.315   0.305   0.298   0.280   0.306   0.325   0.340   0.329   0.316   0.297   0.280   0.290
    56.80    0.338   0.349   0.330   0.321   0.305   0.309   0.317   0.313   0.313   0.321   0.309   0.313   0.317   0.306   0.295   0.298   0.300   0.293   0.299   0.305   0.300   0.295   0.303   0.305   0.305   0.299   0.299   0.308   0.333   0.338   0.318   0.308   0.297   0.283   0.280
    52.15    0.333   0.317   0.332   0.303   0.301   0.290   0.293   0.305   0.303   0.305   0.303   0.311   0.310   0.311   0.297   0.284   0.296   0.287   0.292   0.295   0.304   0.306   0.307   0.314   0.297   0.298   0.294   0.303   0.311   0.318   0.321   0.298   0.281   0.262   0.264
    47.50    0.328   0.316   0.325   0.301   0.306   0.295   0.309   0.293   0.294   0.298   0.286   0.286   0.297   0.293   0.285   0.287   0.299   0.296   0.299   0.298   0.299   0.306   0.310   0.318   0.320   0.305   0.315   0.309   0.313   0.304   0.313   0.309   0.292   0.284   0.265
    42.85    0.329   0.330   0.329   0.309   0.311   0.314   0.309   0.296   0.286   0.294   0.291   0.285   0.298   0.281   0.288   0.283   0.305   0.310   0.305   0.291   0.305   0.325   0.325   0.319   0.307   0.312   0.323   0.311   0.334   0.324   0.306   0.316   0.315   0.301   0.288
    38.20    0.331   0.326   0.335   0.328   0.319   0.319   0.310   0.304   0.295   0.294   0.277   0.298   0.300   0.299   0.277   0.284   0.289   0.290   0.282   0.287   0.296   0.318   0.327   0.305   0.299   0.312   0.318   0.323   0.326   0.315   0.306   0.317   0.333   0.301   0.284
    33.55    0.315   0.309   0.321   0.314   0.317   0.333   0.323   0.297   0.291   0.292   0.297   0.307   0.296   0.292   0.283   0.280   0.280   0.280   0.282   0.282   0.297   0.319   0.331   0.303   0.303   0.311   0.324   0.338   0.317   0.306   0.301   0.304   0.311   0.294   0.296
    28.90    0.301   0.301   0.320   0.320   0.319   0.315   0.314   0.309   0.287   0.289   0.283   0.295   0.303   0.304   0.291   0.290   0.281   0.291   0.288   0.283   0.290   0.311   0.322   0.319   0.307   0.317   0.329   0.325   0.320   0.304   0.300   0.299   0.291   0.279   0.293
    24.25    0.309   0.312   0.319   0.321   0.302   0.309   0.295   0.293   0.291   0.291   0.304   0.315   0.295   0.293   0.285   0.292   0.283   0.293   0.297   0.284   0.302   0.300   0.324   0.317   0.313   0.338   0.326   0.329   0.324   0.319   0.319   0.313   0.292   0.304   0.288
    19.60    0.310   0.301   0.312   0.321   0.301   0.295   0.290   0.293   0.312   0.299   0.304   0.316   0.307   0.297   0.309   0.309   0.293   0.301   0.304   0.297   0.303   0.311   0.328   0.331   0.332   0.337   0.320   0.320   0.314   0.303   0.314   0.306   0.281   0.291   0.292
    14.95    0.304   0.309   0.321   0.318   0.301   0.295   0.290   0.287   0.289   0.296   0.309   0.314   0.301   0.303   0.320   0.325   0.303   0.313   0.316   0.314   0.308   0.307   0.333   0.330   0.326   0.314   0.317   0.322   0.323   0.320   0.310   0.299   0.284   0.284   0.291
    10.30    0.298   0.304   0.311   0.310   0.275   0.278   0.293   0.288   0.290   0.304   0.307   0.306   0.294   0.288   0.309   0.318   0.318   0.325   0.312   0.310   0.320   0.322   0.323   0.324   0.312   0.312   0.310   0.318   0.318   0.334   0.332   0.294   0.290   0.287   0.286
     5.65    0.286   0.306   0.309   0.287   0.279   0.290   0.284   0.289   0.293   0.308   0.306   0.326   0.297   0.303   0.312   0.315   0.313   0.306   0.308   0.317   0.302   0.311   0.308   0.319   0.302   0.307   0.313   0.310   0.320   0.325   0.318   0.308   0.293   0.285   0.293
     1.00    0.294   0.299   0.283   0.285   0.278   0.281   0.288   0.275   0.284   0.301   0.287   0.294   0.307   0.299   0.299   0.293   0.303   0.318   0.294   0.295   0.305   0.304   0.309   0.316   0.313   0.326   0.312   0.306   0.316   0.313   0.311   0.311   0.284   0.281   0.286

   Height   Standard deviation at grid points for the w component:
   168.40    0.197   0.192   0.196   0.194   0.201   0.197   0.201   0.194   0.205   0.201   0.206   0.200   0.186   0.191   0.193   0.194   0.192   0.175   0.174   0.175   0.175   0.179   0.171   0.179   0.186   0.181   0.176   0.174   0.178   0.185   0.184   0.186   0.185   0.183   0.184
   163.75    0.196   0.200   0.197   0.196   0.194   0.192   0.193   0.197   0.196   0.200   0.193   0.197   0.195   0.190   0.187   0.184   0.186   0.185   0.184   0.175   0.180   0.175   0.179   0.187   0.189   0.191   0.183   0.174   0.183   0.185   0.188   0.180   0.185   0.192   0.183
   159.10    0.196   0.203   0.188   0.193   0.192   0.184   0.186   0.186   0.193   0.201   0.198   0.193   0.195   0.189   0.188   0.189   0.195   0.190   0.187   0.181   0.180   0.173   0.180   0.178   0.191   0.193   0.193   0.187   0.190   0.185   0.185   0.185   0.185   0.189   0.183
   154.45    0.198   0.194   0.191   0.191   0.196   0.185   0.180   0.188   0.189   0.190   0.189   0.192   0.192   0.195   0.191   0.193   0.193   0.193   0.181   0.183   0.183   0.178   0.180   0.184   0.188   0.187   0.192   0.198   0.198   0.198   0.189   0.187   0.181   0.182   0.188
   149.80    0.198   0.200   0.193   0.189   0.195   0.184   0.185   0.185   0.182   0.190   0.195   0.194   0.187   0.185   0.183   0.177   0.184   0.188   0.187   0.185   0.176   0.175   0.184   0.180   0.184   0.181   0.189   0.191   0.185   0.193   0.195   0.184   0.183   0.183   0.189
   145.15    0.192   0.188   0.191   0.190   0.188   0.192   0.190   0.190   0.183   0.187   0.192   0.197   0.187   0.182   0.181   0.175   0.181   0.179   0.183   0.180   0.180   0.189   0.180   0.183   0.183   0.182   0.187   0.184   0.187   0.187   0.190   0.191   0.185   0.185   0.179
   140.50    0.199   0.196   0.192   0.196   0.192   0.186   0.186   0.186   0.184   0.193   0.193   0.190   0.197   0.182   0.173   0.178   0.179   0.180   0.182   0.182   0.186   0.192   0.179   0.185   0.175   0.185   0.191   0.191   0.195   0.187   0.187   0.185   0.186   0.185   0.178
   135.85    0.193   0.195   0.199   0.199   0.190   0.188   0.190   0.187   0.182   0.186   0.186   0.181   0.185   0.185   0.181   0.181   0.180   0.181   0.185   0.182   0.180   0.188   0.187   0.182   0.177   0.185   0.187   0.190   0.189   0.192   0.181   0.184   0.187   0.185   0.186
   131.20    0.194   0.190   0.194   0.196   0.192   0.191   0.185   0.185   0.188   0.189   0.180   0.181   0.178   0.177   0.178   0.183   0.179   0.176   0.181   0.182   0.180   0.186   0.185   0.185   0.184   0.192   0.191   0.191   0.192   0.189   0.193   0.189   0.188   0.183   0.187
   126.55    0.187   0.193   0.194   0.188   0.200   0.194   0.190   0.184   0.187   0.186   0.184   0.186   0.177   0.175   0.182   0.181   0.177   0.168   0.173   0.179   0.180   0.180   0.179   0.186   0.189   0.192   0.189   0.189   0.186   0.194   0.192   0.183   0.184   0.178   0.180
   121.90    0.191   0.190   0.192   0.196   0.199   0.197   0.189   0.187   0.189   0.186   0.183   0.186   0.186   0.178   0.182   0.182   0.180   0.175   0.170   0.176   0.184   0.185   0.186   0.187   0.187   0.191   0.192   0.191   0.191   0.194   0.187   0.179   0.185   0.182   0.181
   117.25    0.182   0.190   0.184   0.195   0.199   0.203   0.197   0.194   0.182   0.176   0.190   0.187   0.183   0.186   0.183   0.189   0.187   0.182   0.175   0.177   0.180   0.178   0.181   0.186   0.191   0.187   0.190   0.194   0.188   0.188   0.186   0.182   0.189   0.179   0.186
   112.60    0.192   0.192   0.191   0.188   0.194   0.200   0.207   0.196   0.189   0.183   0.187   0.185   0.188   0.188   0.187   0.195   0.190   0.188   0.179   0.180   0.177   0.181   0.186   0.183   0.183   0.179   0.178   0.190   0.188   0.184   0.189   0.187   0.185   0.182   0.190
   107.95    0.185   0.186   0.185   0.190   0.197   0.200   0.202   0.197   0.181   0.182   0.188   0.182   0.186   0.194   0.185   0.191   0.193   0.184   0.181   0.180   0.184   0.185   0.181   0.175   0.174   0.177   0.182   0.186   0.188   0.188   0.188   0.188   0.185   0.185   0.189
   103.30    0.177   0.185   0.193   0.191   0.192   0.197   0.191   0.191   0.188   0.182   0.180   0.179   0.182   0.190   0.183   0.181   0.180   0.180   0.186   0.181   0.180   0.184   0.184   0.180   0.179   0.180   0.182   0.180   0.185   0.184   0.188   0.187   0.187   0.186   0.189
    98.65    0.186   0.193   0.191   0.181   0.190   0.191   0.196   0.189   0.192   0.188   0.186   0.178   0.186   0.191   0.193   0.185   0.181   0.185   0.182   0.181   0.177   0.181   0.190   0.182   0.186   0.182   0.179   0.186   0.184   0.182   0.185   0.186   0.188   0.185   0.189
    94.00    0.190   0.195   0.193   0.191   0.190   0.190   0.186   0.187   0.189   0.188   0.184   0.186   0.185   0.184   0.190   0.186   0.188   0.189   0.186   0.180   0.183   0.179   0.183   0.185   0.181   0.183   0.178   0.185   0.184   0.188   0.185   0.186   0.177   0.179   0.186
    89.35    0.185   0.186   0.194   0.197   0.194   0.190   0.187   0.186   0.188   0.184   0.191   0.182   0.186   0.188   0.183   0.187   0.191   0.186   0.192   0.181   0.178   0.181   0.180   0.183   0.182   0.177   0.179   0.183   0.183   0.185   0.185   0.180   0.181   0.173   0.180
    84.70    0.188   0.183   0.189   0.186   0.188   0.184   0.183   0.177   0.183   0.190   0.190   0.186   0.183   0.185   0.191   0.190   0.183   0.182   0.183   0.177   0.173   0.183   0.180   0.181   0.180   0.181   0.176   0.180   0.183   0.183   0.184   0.181   0.179   0.177   0.183
    80.05    0.182   0.185   0.193   0.188   0.191   0.182   0.184   0.177   0.184   0.185   0.185   0.185   0.182   0.190   0.191   0.184   0.186   0.185   0.182   0.186   0.187   0.184   0.178   0.178   0.178   0.176   0.176   0.180   0.180   0.181   0.181   0.178   0.178   0.180   0.183
    75.40    0.179   0.179   0.188   0.185   0.187   0.182   0.172   0.179   0.186   0.183   0.177   0.185   0.189   0.189   0.183   0.188   0.182   0.180   0.189   0.189   0.186   0.182   0.179   0.175   0.180   0.178   0.179   0.179   0.180   0.173   0.171   0.174   0.172   0.177   0.182
    70.75    0.181   0.180   0.185   0.184   0.181   0.184   0.178   0.182   0.178   0.180   0.179   0.180   0.186   0.183   0.176   0.180   0.179   0.180   0.181   0.179   0.181   0.181   0.178   0.178   0.184   0.186   0.186   0.183   0.180   0.173   0.175   0.172   0.174   0.181   0.177
    66.10    0.183   0.174   0.178   0.185   0.185   0.184   0.180   0.176   0.177   0.176   0.184   0.178   0.184   0.182   0.179   0.178   0.184   0.186   0.181   0.184   0.184   0.177   0.177   0.176   0.189   0.191   0.184   0.183   0.176   0.173   0.173   0.179   0.176   0.187   0.180
    61.45    0.190   0.183   0.181   0.188   0.186   0.186   0.181   0.178   0.179   0.180   0.183   0.174   0.176   0.173   0.181   0.187   0.181   0.178   0.183   0.183   0.179   0.182   0.183   0.181   0.189   0.187   0.182   0.179   0.171   0.177   0.182   0.180   0.180   0.186   0.184
    56.80    0.187   0.181   0.188   0.186   0.187   0.188   0.182   0.181   0.175   0.185   0.172   0.174   0.173   0.181   0.178   0.179   0.186   0.183   0.187   0.186   0.184   0.187   0.187   0.195   0.189   0.194   0.182   0.178   0.175   0.182   0.179   0.178   0.181   0.181   0.177
    52.15    0.192   0.186   0.187   0.184   0.179   0.184   0.189   0.181   0.187   0.181   0.183   0.176   0.181   0.175   0.171   0.175   0.186   0.188   0.186   0.180   0.184   0.187   0.187   0.194   0.195   0.189   0.177   0.182   0.186   0.185   0.181   0.179   0.184   0.180   0.182
    47.50    0.193   0.189   0.181   0.184   0.178   0.182   0.182   0.187   0.184   0.186   0.182   0.183   0.182   0.181   0.179   0.173   0.179   0.179   0.179   0.178   0.182   0.183   0.192   0.193   0.191   0.189   0.181   0.196   0.190   0.185   0.190   0.178   0.181   0.181   0.182
    42.85    0.193   0.188   0.181   0.177   0.171   0.182   0.185   0.187   0.177   0.180   0.184   0.189   0.187   0.183   0.177   0.176   0.175   0.178   0.172   0.165   0.180   0.182   0.190   0.194   0.184   0.187   0.184   0.189   0.189   0.187   0.186   0.185   0.182   0.183   0.187
    38.20    0.195   0.191   0.188   0.181   0.183   0.186   0.189   0.182   0.184   0.176   0.189   0.184   0.183   0.186   0.181   0.175   0.181   0.174   0.179   0.174   0.176   0.179   0.184   0.188   0.180   0.183   0.191   0.181   0.186   0.187   0.187   0.185   0.185   0.186   0.183
    33.55    0.196   0.195   0.194   0.187   0.180   0.178   0.182   0.175   0.178   0.181   0.181   0.180   0.172   0.184   0.183   0.179   0.171   0.177   0.177   0.177   0.185   0.177   0.182   0.183   0.186   0.189   0.194   0.190   0.192   0.187   0.192   0.185   0.184   0.187   0.183
    28.90    0.195   0.191   0.191   0.181   0.184   0.190   0.190   0.180   0.172   0.181   0.177   0.178   0.173   0.174   0.178   0.179   0.176   0.183   0.179   0.180   0.183   0.180   0.184   0.182   0.187   0.197   0.198   0.191   0.192   0.189   0.182   0.174   0.183   0.182   0.179
    24.25    0.188   0.190   0.188   0.188   0.181   0.187   0.187   0.185   0.190   0.182   0.183   0.183   0.180   0.171   0.176   0.173   0.180   0.179   0.182   0.186   0.182   0.185   0.186   0.183   0.196   0.199   0.194   0.193   0.190   0.179   0.178   0.175   0.184   0.176   0.178
    19.60    0.192   0.190   0.189   0.180   0.178   0.184   0.180   0.187   0.183   0.180   0.178   0.185   0.179   0.182   0.182   0.177   0.183   0.179   0.181   0.187   0.191   0.191   0.185   0.184   0.193   0.189   0.193   0.183   0.180   0.179   0.177   0.177   0.179   0.183   0.178
    14.95    0.194   0.195   0.185   0.183   0.184   0.187   0.185   0.190   0.187   0.175   0.180   0.179   0.186   0.187   0.182   0.187   0.180   0.186   0.186   0.191   0.200   0.189   0.191   0.189   0.187   0.183   0.190   0.177   0.173   0.179   0.178   0.178   0.181   0.188   0.181
    10.30    0.195   0.194   0.186   0.188   0.183   0.182   0.182   0.182   0.183   0.173   0.180   0.175   0.185   0.188   0.183   0.185   0.189   0.180   0.188   0.193   0.195   0.194   0.183   0.186   0.183   0.176   0.188   0.182   0.181   0.182   0.187   0.181   0.187   0.190   0.178
     5.65    0.195   0.194   0.185   0.185   0.182   0.182   0.177   0.179   0.180   0.178   0.179   0.184   0.194   0.191   0.187   0.177   0.184   0.181   0.185   0.192   0.187   0.185   0.184   0.183   0.181   0.193   0.192   0.186   0.188   0.184   0.185   0.183   0.184   0.187   0.184
     1.00    0.188   0.189   0.192   0.190   0.180   0.175   0.170   0.178   0.178   0.185   0.183   0.183   0.189   0.186   0.192   0.194   0.193   0.188   0.196   0.189   0.182   0.183   0.183   0.184   0.183   0.193   0.188   0.187   0.195   0.188   0.178   0.181   0.179   0.184   0.180

   Mean standard deviation across all grid points:
      u component:    0.378 m/s
      v component:    0.301 m/s
      w component:    0.185 m/s


U-component (X) statistics from the interpolated hub point:

   Mean =   9.9913 m/s
   TI   =   3.4916 %


Processing complete.  5541.8 CPU seconds used.
