
This summary file was generated by TurbSim (from OpenFAST-v3.5.3) on 20-Apr-2025 at 03:06:58.


Runtime Options:

1682697194  Random seed #1
    RANLUX  Type of random number generator
         F  Output binary HH turbulence parameters?
         F  Output formatted turbulence parameters?
         F  Output AeroDyn HH files?
         T  Output AeroDyn FF files?
         F  Output BLADED FF files?
         F  Output tower data?
         F  Output HAWC FF files?
         F  Output formatted FF files?
         T  Output coherent turbulence time step file?
 0 -  NONE  IEC turbulence models scaled to exact specified standard deviation


Turbine/Model Specifications:

        37  Vertical grid-point matrix dimension
        35  Horizontal grid-point matrix dimension
     0.250  Time step [seconds]
   900.000  Analysis time [seconds]
   900.000  Usable output time [seconds]
    89.350  Hub height [m]
   167.400  Grid height [m]
   158.100  Grid width [m]
     0.000  Vertical flow angle [degrees]
     0.000  Horizontal flow angle [degrees]


Meteorological Boundary Conditions:

    TIMESR  User-input time series spectral model
       N/A  IEC standard
       N/A  IEC turbulence characteristic
       N/A  IEC turbulence type
       N/A  IEC Extreme Turbulence Model (ETM) "c" parameter [m/s]
       PL   Wind profile type
    90.000  Reference height [m]
    10.000  Reference wind speed [m/s]
       N/A  Jet height [m]
     0.120  Power law exponent
     0.030  Surface roughness length [m]


Non-IEC Meteorological Boundary Conditions:

    45.000  Site latitude [degrees]
     0.050  Gradient Richardson number
     0.480  Friction or shear velocity [m/s]
       N/A  Mixing layer depth [m]
       N/A  Mean hub u'w' Reynolds stress
       N/A  Mean hub u'v' Reynolds stress
       N/A  Mean hub v'w' Reynolds stress


Spatial Coherence Models:

       IEC  u-component coherence model
       IEC  v-component coherence model
       IEC  w-component coherence model
(   12.000, 0.353E-03)  u-component coherence parameters
(   12.000, 0.353E-03)  v-component coherence parameters
(   12.000, 0.353E-03)  w-component coherence parameters
       N/A  Coherence exponent


Coherent Turbulence Scaling Parameters:

.\EventData
            Name of the path containing the coherent turbulence data files
       les  Type of coherent turbulence data files
     0.500  Disturbance scale (ratio of wave height to rotor diameter)
     0.500  Fractional location of tower centerline from right
     0.000  Fractional location of hub height from the bottom of the dataset
    30.000  Minimum start time for coherent structures [seconds]


Profiles from User-Defined Time-Series Input:

  Height   Wind Speed   Horizontal Angle   Vertical Angle
   (m)        (m/s)          (deg)              (deg)    
  ------   ----------   ----------------   --------------
   94.00      10.00          -0.63               -0.00


You have requested that the following file(s) be generated:

   /kfs3/scratch/agupta/Projects/RL_Incubator/FinalRuns_Veer/Seed4/./FFSim_Seed4/Cond00_v10.0_PL0.12_TI2.5/Case0_wdirp00/Seed_5/TurbSim/HighT12.bts (AeroDyn/TurbSim full-field wind file)


Turbulence Simulation Scaling Parameter Summary:

   Turbulence model used                            =  User-input time series
   Gradient Richardson number                       =    0.050
   Monin-Obukhov (M-O) z/L parameter                =    0.067
   Monin-Obukhov (M-O) length scale                 = 1340.250 m
   Mean wind speed at hub height                    =    9.991 m/s

   Wind profile type                                =  Power law
   Power law exponent                               =    0.120
   Mean shear across rotor disk                     =    0.019 (m/s)/m
   Assumed rotor diameter                           =  158.100 m
   Surface roughness length                         =    0.030 m

   Nyquist frequency of turbulent wind field        =    2.000 Hz

   Number of time steps in the FFT                  =     3600
   Number of time steps output                      =     3600
   Number of points simulated                       =     1296


Mean Flow Angles:

   Vertical   =   0.0 degrees
   Horizontal =   0.0 degrees

Mean Wind Speed Profile:

   Height    Wind Speed   Horizontal Angle  Vertical Angle  U-comp (X)   V-comp (Y)   W-comp (Z)
     (m)        (m/s)         (degrees)       (degrees)       (m/s)        (m/s)        (m/s)   
   ------    ----------   ----------------  --------------  ----------   ----------   ----------
    168.4       10.78            0.00            0.00         10.78         0.00         0.00
    163.7       10.74            0.00            0.00         10.74         0.00         0.00
    159.1       10.71            0.00            0.00         10.71         0.00         0.00
    154.4       10.67            0.00            0.00         10.67         0.00         0.00
    149.8       10.63            0.00            0.00         10.63         0.00         0.00
    145.1       10.59            0.00            0.00         10.59         0.00         0.00
    140.5       10.55            0.00            0.00         10.55         0.00         0.00
    135.8       10.51            0.00            0.00         10.51         0.00         0.00
    131.2       10.46            0.00            0.00         10.46         0.00         0.00
    126.5       10.42            0.00            0.00         10.42         0.00         0.00
    121.9       10.37            0.00            0.00         10.37         0.00         0.00
    117.2       10.32            0.00            0.00         10.32         0.00         0.00
    112.6       10.27            0.00            0.00         10.27         0.00         0.00
    107.9       10.22            0.00            0.00         10.22         0.00         0.00
    103.3       10.17            0.00            0.00         10.17         0.00         0.00
     98.6       10.11            0.00            0.00         10.11         0.00         0.00
     94.0       10.05            0.00            0.00         10.05         0.00         0.00
     89.3        9.99            0.00            0.00          9.99         0.00         0.00
     84.7        9.93            0.00            0.00          9.93         0.00         0.00
     80.0        9.86            0.00            0.00          9.86         0.00         0.00
     75.4        9.79            0.00            0.00          9.79         0.00         0.00
     70.7        9.72            0.00            0.00          9.72         0.00         0.00
     66.1        9.64            0.00            0.00          9.64         0.00         0.00
     61.4        9.55            0.00            0.00          9.55         0.00         0.00
     56.8        9.46            0.00            0.00          9.46         0.00         0.00
     52.1        9.37            0.00            0.00          9.37         0.00         0.00
     47.5        9.26            0.00            0.00          9.26         0.00         0.00
     42.8        9.15            0.00            0.00          9.15         0.00         0.00
     38.2        9.02            0.00            0.00          9.02         0.00         0.00
     33.5        8.88            0.00            0.00          8.88         0.00         0.00
     28.9        8.73            0.00            0.00          8.73         0.00         0.00
     24.2        8.54            0.00            0.00          8.54         0.00         0.00
     19.6        8.33            0.00            0.00          8.33         0.00         0.00
     14.9        8.06            0.00            0.00          8.06         0.00         0.00
     10.3        7.71            0.00            0.00          7.71         0.00         0.00
      5.6        7.17            0.00            0.00          7.17         0.00         0.00
      1.0        5.83            0.00            0.00          5.83         0.00         0.00


Harvested Random Seeds after Generation of the Random Numbers:

     65026800 K 1
            0 K 2


Hub-Height Simulated Turbulence Statistical Summary:

   Type of Wind        Min (m/s)   Mean (m/s)    Max (m/s)  Sigma (m/s)       TI (%)
   ----------------    ---------   ----------    ---------  -----------       ------
   Longitudinal (u)         9.33         9.99        10.72        0.252        2.524
   Lateral (v)             -0.69         0.00         0.57        0.201        2.011
   Vertical (w)            -0.34         0.00         0.44        0.109        1.090
   U component              9.33         9.99        10.72        0.252        2.524
   V component             -0.69         0.00         0.57        0.201        2.011
   W component             -0.34         0.00         0.44        0.109        1.090
   Horizontal (U&V)         9.33         9.99        10.72        0.252        2.523
   Total                    9.33         9.99        10.72        0.252        2.523

                       Min Reynolds     Mean Reynolds    Max Reynolds    Correlation
   Product             Stress (m/s)^2   Stress (m/s)^2   Stress (m/s)^2  Coefficient
   ----------------    --------------   --------------   --------------  -----------
   u'w'                     -0.183            -0.001             0.176        -0.025
   u'v'                     -0.300            -0.010             0.231        -0.203
   v'w'                     -0.153             0.000             0.238         0.004


   Friction Velocity (Ustar)  =      0.026 m/s
   Maximum Instantaneous TKE  =      0.310 (m/s)^2
   Maximum Instantaneous CTKE =      0.151 (m/s)^2


Grid Point Variance Summary:

   Y-coord  -79.05  -74.40  -69.75  -65.10  -60.45  -55.80  -51.15  -46.50  -41.85  -37.20  -32.55  -27.90  -23.25  -18.60  -13.95   -9.30   -4.65    0.00    4.65    9.30   13.95   18.60   23.25   27.90   32.55   37.20   41.85   46.50   51.15   55.80   60.45   65.10   69.75   74.40   79.05

   Height   Standard deviation at grid points for the u component:
   168.40    0.277   0.249   0.253   0.258   0.275   0.274   0.280   0.277   0.252   0.244   0.246   0.256   0.246   0.258   0.277   0.274   0.264   0.282   0.270   0.284   0.271   0.267   0.270   0.264   0.261   0.269   0.281   0.263   0.248   0.240   0.240   0.213   0.216   0.216   0.232
   163.75    0.264   0.255   0.239   0.246   0.255   0.272   0.267   0.258   0.256   0.241   0.249   0.264   0.255   0.268   0.286   0.273   0.289   0.273   0.282   0.292   0.278   0.282   0.260   0.273   0.284   0.260   0.242   0.257   0.250   0.254   0.228   0.214   0.202   0.218   0.214
   159.10    0.263   0.239   0.245   0.251   0.257   0.253   0.266   0.266   0.243   0.262   0.266   0.289   0.288   0.309   0.299   0.283   0.279   0.283   0.294   0.292   0.274   0.258   0.272   0.276   0.288   0.252   0.248   0.254   0.252   0.258   0.239   0.210   0.202   0.207   0.211
   154.45    0.255   0.251   0.238   0.252   0.243   0.226   0.234   0.249   0.258   0.261   0.276   0.285   0.282   0.291   0.275   0.267   0.284   0.288   0.298   0.293   0.281   0.264   0.263   0.268   0.273   0.236   0.251   0.255   0.245   0.234   0.243   0.226   0.218   0.213   0.218
   149.80    0.257   0.261   0.254   0.242   0.252   0.244   0.258   0.254   0.263   0.260   0.290   0.297   0.283   0.284   0.257   0.267   0.260   0.278   0.273   0.279   0.263   0.256   0.264   0.244   0.250   0.257   0.258   0.278   0.259   0.252   0.253   0.226   0.245   0.235   0.223
   145.15    0.266   0.259   0.229   0.247   0.245   0.242   0.258   0.275   0.291   0.280   0.290   0.303   0.307   0.275   0.262   0.253   0.275   0.255   0.267   0.244   0.262   0.260   0.237   0.253   0.234   0.255   0.275   0.255   0.262   0.258   0.244   0.233   0.235   0.237   0.234
   140.50    0.279   0.267   0.262   0.236   0.251   0.252   0.248   0.248   0.271   0.281   0.289   0.292   0.285   0.273   0.256   0.250   0.258   0.263   0.259   0.250   0.252   0.256   0.249   0.250   0.241   0.256   0.262   0.274   0.258   0.252   0.239   0.239   0.246   0.239   0.248
   135.85    0.263   0.271   0.272   0.267   0.275   0.246   0.241   0.245   0.262   0.256   0.276   0.304   0.289   0.281   0.256   0.260   0.250   0.259   0.260   0.250   0.245   0.225   0.233   0.241   0.244   0.262   0.272   0.276   0.265   0.265   0.251   0.236   0.237   0.236   0.269
   131.20    0.260   0.245   0.277   0.300   0.268   0.242   0.255   0.264   0.274   0.275   0.282   0.281   0.286   0.274   0.265   0.251   0.273   0.278   0.266   0.248   0.232   0.229   0.245   0.243   0.253   0.268   0.264   0.274   0.271   0.266   0.254   0.243   0.246   0.244   0.268
   126.55    0.252   0.243   0.260   0.275   0.265   0.266   0.246   0.252   0.251   0.283   0.283   0.287   0.289   0.293   0.285   0.287   0.262   0.274   0.269   0.255   0.238   0.227   0.247   0.248   0.256   0.265   0.261   0.288   0.299   0.282   0.274   0.260   0.261   0.261   0.262
   121.90    0.252   0.262   0.241   0.264   0.278   0.286   0.261   0.252   0.257   0.262   0.266   0.266   0.261   0.264   0.282   0.260   0.277   0.267   0.253   0.275   0.253   0.226   0.243   0.240   0.236   0.261   0.269   0.294   0.282   0.283   0.276   0.251   0.270   0.272   0.271
   117.25    0.271   0.270   0.232   0.251   0.272   0.277   0.270   0.249   0.244   0.256   0.259   0.254   0.252   0.253   0.267   0.257   0.253   0.282   0.269   0.250   0.250   0.230   0.234   0.227   0.233   0.245   0.259   0.274   0.275   0.258   0.255   0.257   0.268   0.276   0.282
   112.60    0.289   0.261   0.248   0.238   0.267   0.270   0.272   0.265   0.251   0.268   0.284   0.278   0.271   0.239   0.256   0.272   0.275   0.271   0.273   0.256   0.271   0.252   0.248   0.253   0.250   0.234   0.243   0.253   0.267   0.256   0.259   0.264   0.283   0.293   0.273
   107.95    0.286   0.273   0.255   0.245   0.252   0.261   0.265   0.264   0.277   0.287   0.275   0.291   0.275   0.259   0.248   0.244   0.261   0.281   0.262   0.258   0.256   0.251   0.251   0.263   0.265   0.257   0.257   0.245   0.251   0.249   0.244   0.261   0.251   0.274   0.276
   103.30    0.266   0.249   0.247   0.233   0.257   0.249   0.254   0.261   0.267   0.281   0.292   0.279   0.282   0.271   0.270   0.261   0.279   0.278   0.255   0.251   0.228   0.244   0.269   0.279   0.276   0.282   0.251   0.230   0.232   0.231   0.237   0.241   0.245   0.271   0.260
    98.65    0.256   0.251   0.229   0.227   0.238   0.262   0.258   0.269   0.260   0.283   0.292   0.290   0.275   0.270   0.253   0.269   0.277   0.256   0.251   0.255   0.234   0.245   0.264   0.266   0.273   0.262   0.263   0.237   0.235   0.228   0.218   0.243   0.248   0.258   0.258
    94.00    0.260   0.272   0.245   0.238   0.244   0.260   0.253   0.260   0.258   0.264   0.278   0.294   0.299   0.272   0.270   0.270   0.265   0.264   0.263   0.253   0.239   0.260   0.265   0.283   0.270   0.262   0.261   0.241   0.253   0.227   0.225   0.231   0.237   0.244   0.234
    89.35    0.262   0.266   0.264   0.246   0.244   0.268   0.279   0.263   0.263   0.281   0.268   0.265   0.286   0.296   0.264   0.266   0.273   0.252   0.247   0.272   0.258   0.257   0.277   0.266   0.267   0.255   0.241   0.246   0.262   0.235   0.224   0.211   0.229   0.240   0.259
    84.70    0.276   0.273   0.242   0.243   0.263   0.261   0.279   0.262   0.255   0.270   0.270   0.280   0.306   0.305   0.297   0.278   0.269   0.269   0.260   0.264   0.272   0.281   0.292   0.273   0.264   0.248   0.255   0.261   0.259   0.256   0.222   0.221   0.228   0.239   0.256
    80.05    0.278   0.271   0.256   0.260   0.278   0.273   0.274   0.273   0.257   0.246   0.256   0.282   0.303   0.315   0.287   0.280   0.275   0.262   0.265   0.257   0.260   0.277   0.275   0.281   0.269   0.265   0.259   0.256   0.279   0.261   0.241   0.234   0.245   0.230   0.244
    75.40    0.271   0.254   0.261   0.267   0.267   0.289   0.274   0.263   0.271   0.265   0.283   0.276   0.291   0.307   0.309   0.260   0.267   0.271   0.248   0.254   0.248   0.285   0.283   0.297   0.274   0.275   0.256   0.278   0.273   0.281   0.262   0.237   0.231   0.235   0.242
    70.75    0.255   0.262   0.246   0.272   0.289   0.282   0.295   0.291   0.295   0.272   0.290   0.305   0.308   0.307   0.300   0.268   0.270   0.274   0.262   0.260   0.277   0.294   0.300   0.314   0.293   0.273   0.274   0.287   0.298   0.289   0.253   0.233   0.240   0.245   0.242
    66.10    0.251   0.256   0.251   0.266   0.271   0.291   0.282   0.273   0.292   0.282   0.284   0.297   0.303   0.305   0.280   0.261   0.279   0.295   0.286   0.262   0.274   0.284   0.301   0.328   0.330   0.318   0.294   0.331   0.336   0.295   0.264   0.250   0.240   0.238   0.236
    61.45    0.267   0.293   0.283   0.287   0.259   0.282   0.277   0.261   0.284   0.294   0.283   0.297   0.292   0.289   0.290   0.272   0.277   0.311   0.301   0.289   0.270   0.281   0.304   0.297   0.326   0.308   0.304   0.341   0.346   0.295   0.291   0.268   0.255   0.253   0.256
    56.80    0.291   0.292   0.274   0.269   0.273   0.280   0.268   0.282   0.292   0.285   0.291   0.298   0.283   0.285   0.274   0.266   0.294   0.310   0.312   0.299   0.276   0.290   0.303   0.298   0.307   0.337   0.347   0.352   0.347   0.310   0.287   0.283   0.274   0.267   0.265
    52.15    0.271   0.274   0.250   0.269   0.284   0.279   0.283   0.283   0.283   0.285   0.279   0.280   0.257   0.264   0.265   0.290   0.305   0.295   0.293   0.281   0.271   0.279   0.294   0.316   0.322   0.338   0.337   0.320   0.324   0.332   0.309   0.307   0.309   0.291   0.281
    47.50    0.273   0.280   0.271   0.280   0.289   0.286   0.275   0.278   0.274   0.275   0.259   0.270   0.266   0.259   0.269   0.291   0.285   0.284   0.280   0.287   0.280   0.299   0.288   0.317   0.305   0.328   0.331   0.314   0.313   0.315   0.311   0.312   0.322   0.303   0.295
    42.85    0.283   0.296   0.278   0.284   0.286   0.290   0.282   0.269   0.276   0.253   0.266   0.260   0.260   0.256   0.282   0.291   0.292   0.273   0.285   0.288   0.305   0.306   0.297   0.296   0.315   0.317   0.320   0.332   0.310   0.295   0.287   0.325   0.326   0.326   0.321
    38.20    0.269   0.294   0.290   0.287   0.286   0.275   0.282   0.282   0.262   0.263   0.265   0.268   0.264   0.280   0.296   0.291   0.306   0.294   0.309   0.313   0.303   0.323   0.317   0.308   0.304   0.309   0.327   0.326   0.323   0.314   0.323   0.335   0.347   0.344   0.330
    33.55    0.281   0.266   0.289   0.280   0.293   0.275   0.272   0.282   0.289   0.265   0.238   0.261   0.271   0.297   0.291   0.311   0.296   0.281   0.287   0.313   0.315   0.351   0.326   0.299   0.304   0.317   0.323   0.314   0.325   0.318   0.325   0.322   0.322   0.337   0.314
    28.90    0.277   0.290   0.272   0.270   0.274   0.260   0.269   0.290   0.300   0.275   0.251   0.250   0.262   0.287   0.302   0.312   0.291   0.279   0.299   0.304   0.308   0.339   0.326   0.314   0.306   0.328   0.338   0.335   0.338   0.346   0.325   0.308   0.311   0.307   0.309
    24.25    0.277   0.290   0.286   0.278   0.291   0.269   0.264   0.287   0.278   0.257   0.262   0.250   0.265   0.293   0.312   0.312   0.299   0.305   0.315   0.302   0.298   0.333   0.328   0.307   0.306   0.309   0.315   0.318   0.316   0.326   0.303   0.309   0.301   0.307   0.291
    19.60    0.269   0.260   0.279   0.272   0.284   0.249   0.260   0.286   0.267   0.277   0.272   0.266   0.289   0.299   0.288   0.323   0.310   0.299   0.294   0.307   0.298   0.323   0.314   0.301   0.311   0.305   0.316   0.338   0.311   0.309   0.310   0.303   0.309   0.308   0.288
    14.95    0.257   0.243   0.273   0.279   0.273   0.256   0.284   0.259   0.261   0.287   0.305   0.293   0.283   0.292   0.284   0.302   0.302   0.298   0.289   0.293   0.306   0.284   0.312   0.335   0.310   0.302   0.309   0.312   0.326   0.333   0.311   0.315   0.302   0.295   0.277
    10.30    0.259   0.266   0.275   0.290   0.266   0.273   0.274   0.275   0.271   0.294   0.317   0.302   0.306   0.304   0.325   0.303   0.301   0.305   0.303   0.299   0.300   0.301   0.318   0.316   0.315   0.318   0.299   0.325   0.323   0.324   0.312   0.294   0.300   0.289   0.269
     5.65    0.274   0.266   0.279   0.284   0.273   0.285   0.283   0.300   0.285   0.292   0.303   0.306   0.308   0.332   0.349   0.328   0.319   0.309   0.301   0.296   0.305   0.326   0.305   0.297   0.294   0.307   0.310   0.312   0.305   0.291   0.288   0.295   0.294   0.279   0.258
     1.00    0.270   0.266   0.284   0.291   0.265   0.280   0.290   0.286   0.292   0.273   0.294   0.307   0.330   0.331   0.341   0.342   0.328   0.295   0.294   0.303   0.298   0.311   0.297   0.304   0.290   0.287   0.301   0.289   0.267   0.252   0.278   0.257   0.250   0.230   0.245

   Height   Standard deviation at grid points for the v component:
   168.40    0.216   0.217   0.224   0.207   0.212   0.208   0.205   0.195   0.181   0.188   0.198   0.197   0.196   0.188   0.190   0.186   0.190   0.192   0.199   0.193   0.184   0.200   0.196   0.201   0.196   0.188   0.189   0.179   0.186   0.186   0.191   0.193   0.192   0.186   0.187
   163.75    0.221   0.212   0.214   0.213   0.205   0.198   0.194   0.194   0.188   0.186   0.193   0.188   0.191   0.184   0.192   0.197   0.200   0.202   0.203   0.199   0.198   0.205   0.196   0.199   0.195   0.199   0.191   0.184   0.193   0.186   0.192   0.184   0.192   0.185   0.187
   159.10    0.211   0.207   0.200   0.197   0.198   0.198   0.194   0.186   0.181   0.180   0.190   0.186   0.191   0.196   0.200   0.206   0.204   0.207   0.204   0.201   0.202   0.192   0.194   0.194   0.196   0.201   0.200   0.195   0.201   0.186   0.185   0.183   0.185   0.188   0.193
   154.45    0.198   0.194   0.189   0.194   0.187   0.190   0.200   0.190   0.186   0.182   0.181   0.188   0.189   0.197   0.202   0.200   0.204   0.204   0.206   0.201   0.200   0.191   0.198   0.188   0.194   0.198   0.202   0.208   0.203   0.198   0.190   0.182   0.187   0.198   0.188
   149.80    0.194   0.192   0.184   0.192   0.187   0.178   0.178   0.180   0.184   0.172   0.180   0.195   0.194   0.191   0.190   0.199   0.211   0.203   0.201   0.199   0.193   0.188   0.195   0.199   0.193   0.188   0.211   0.206   0.196   0.202   0.193   0.188   0.189   0.191   0.192
   145.15    0.188   0.188   0.184   0.188   0.185   0.181   0.178   0.179   0.180   0.174   0.181   0.194   0.195   0.196   0.201   0.211   0.217   0.206   0.193   0.191   0.185   0.189   0.195   0.191   0.199   0.211   0.210   0.210   0.195   0.199   0.197   0.197   0.201   0.193   0.192
   140.50    0.190   0.182   0.184   0.185   0.182   0.179   0.183   0.178   0.179   0.184   0.184   0.187   0.192   0.197   0.209   0.216   0.204   0.200   0.196   0.191   0.183   0.187   0.197   0.180   0.191   0.196   0.204   0.199   0.201   0.206   0.202   0.199   0.205   0.195   0.199
   135.85    0.190   0.187   0.189   0.178   0.188   0.184   0.176   0.180   0.180   0.178   0.181   0.183   0.192   0.199   0.207   0.208   0.202   0.202   0.196   0.184   0.179   0.184   0.185   0.185   0.189   0.198   0.200   0.189   0.196   0.199   0.206   0.198   0.183   0.186   0.199
   131.20    0.178   0.186   0.180   0.182   0.183   0.183   0.179   0.171   0.182   0.172   0.173   0.186   0.194   0.205   0.201   0.202   0.195   0.196   0.188   0.184   0.177   0.180   0.180   0.180   0.180   0.191   0.192   0.197   0.196   0.194   0.193   0.188   0.193   0.190   0.197
   126.55    0.189   0.187   0.183   0.182   0.185   0.182   0.184   0.178   0.168   0.166   0.177   0.184   0.195   0.202   0.190   0.199   0.178   0.187   0.183   0.185   0.172   0.177   0.183   0.179   0.177   0.180   0.187   0.187   0.187   0.187   0.185   0.175   0.181   0.185   0.196
   121.90    0.180   0.191   0.188   0.191   0.185   0.183   0.177   0.180   0.177   0.176   0.178   0.184   0.193   0.197   0.197   0.191   0.183   0.185   0.183   0.178   0.165   0.173   0.182   0.174   0.182   0.178   0.178   0.189   0.188   0.184   0.175   0.172   0.174   0.178   0.186
   117.25    0.181   0.190   0.195   0.190   0.179   0.174   0.177   0.179   0.177   0.175   0.182   0.177   0.187   0.187   0.191   0.195   0.186   0.191   0.178   0.166   0.176   0.180   0.184   0.177   0.189   0.188   0.184   0.190   0.184   0.183   0.174   0.180   0.175   0.177   0.179
   112.60    0.188   0.198   0.192   0.184   0.184   0.186   0.178   0.182   0.195   0.187   0.187   0.193   0.188   0.180   0.191   0.185   0.190   0.193   0.178   0.176   0.170   0.172   0.186   0.185   0.176   0.181   0.187   0.193   0.187   0.177   0.180   0.182   0.170   0.168   0.176
   107.95    0.195   0.199   0.202   0.187   0.193   0.193   0.192   0.192   0.187   0.187   0.189   0.198   0.200   0.189   0.183   0.186   0.192   0.195   0.196   0.173   0.166   0.168   0.180   0.181   0.189   0.189   0.185   0.188   0.188   0.183   0.188   0.176   0.174   0.170   0.182
   103.30    0.189   0.191   0.187   0.180   0.189   0.194   0.200   0.193   0.188   0.186   0.192   0.188   0.194   0.191   0.185   0.194   0.200   0.205   0.193   0.187   0.184   0.181   0.182   0.177   0.186   0.183   0.186   0.188   0.188   0.192   0.186   0.182   0.174   0.174   0.184
    98.65    0.177   0.179   0.184   0.176   0.180   0.194   0.199   0.192   0.188   0.183   0.192   0.196   0.203   0.189   0.194   0.194   0.203   0.201   0.196   0.191   0.182   0.173   0.176   0.167   0.178   0.181   0.184   0.187   0.187   0.184   0.191   0.185   0.181   0.180   0.176
    94.00    0.177   0.183   0.187   0.193   0.191   0.194   0.199   0.203   0.186   0.193   0.188   0.204   0.205   0.190   0.192   0.206   0.205   0.195   0.196   0.186   0.184   0.169   0.171   0.179   0.180   0.181   0.186   0.187   0.187   0.180   0.180   0.187   0.175   0.174   0.177
    89.35    0.187   0.186   0.187   0.185   0.187   0.182   0.195   0.198   0.189   0.195   0.193   0.196   0.203   0.202   0.195   0.208   0.204   0.201   0.197   0.194   0.179   0.177   0.176   0.182   0.175   0.178   0.182   0.180   0.184   0.189   0.183   0.177   0.182   0.181   0.176
    84.70    0.185   0.186   0.187   0.188   0.184   0.192   0.193   0.193   0.190   0.192   0.194   0.205   0.203   0.196   0.202   0.201   0.196   0.197   0.190   0.184   0.182   0.189   0.189   0.186   0.180   0.173   0.182   0.187   0.182   0.185   0.182   0.176   0.180   0.181   0.172
    80.05    0.180   0.192   0.186   0.181   0.177   0.179   0.188   0.192   0.187   0.179   0.195   0.205   0.203   0.208   0.202   0.202   0.196   0.208   0.186   0.194   0.187   0.186   0.188   0.192   0.191   0.181   0.176   0.184   0.188   0.177   0.181   0.180   0.188   0.171   0.170
    75.40    0.190   0.191   0.183   0.187   0.188   0.191   0.185   0.187   0.188   0.188   0.189   0.202   0.207   0.194   0.198   0.203   0.202   0.201   0.189   0.190   0.181   0.183   0.184   0.186   0.185   0.173   0.182   0.184   0.190   0.192   0.182   0.175   0.171   0.171   0.174
    70.75    0.189   0.188   0.193   0.190   0.192   0.194   0.195   0.193   0.187   0.204   0.203   0.209   0.195   0.199   0.194   0.194   0.207   0.198   0.190   0.186   0.184   0.178   0.181   0.186   0.184   0.181   0.178   0.185   0.186   0.184   0.182   0.175   0.173   0.179   0.181
    66.10    0.182   0.182   0.192   0.193   0.197   0.197   0.195   0.190   0.198   0.200   0.202   0.205   0.201   0.201   0.198   0.195   0.202   0.199   0.186   0.183   0.189   0.180   0.185   0.180   0.181   0.190   0.193   0.195   0.193   0.189   0.177   0.181   0.175   0.181   0.184
    61.45    0.190   0.178   0.192   0.199   0.196   0.199   0.203   0.198   0.193   0.200   0.204   0.209   0.201   0.203   0.195   0.199   0.205   0.197   0.194   0.184   0.185   0.188   0.192   0.189   0.184   0.190   0.198   0.186   0.187   0.191   0.179   0.174   0.184   0.178   0.184
    56.80    0.181   0.184   0.189   0.199   0.191   0.189   0.201   0.200   0.195   0.208   0.201   0.204   0.199   0.198   0.198   0.204   0.199   0.197   0.204   0.188   0.183   0.175   0.182   0.181   0.178   0.181   0.182   0.191   0.188   0.192   0.185   0.182   0.188   0.178   0.181
    52.15    0.185   0.194   0.199   0.205   0.199   0.193   0.199   0.202   0.213   0.218   0.212   0.205   0.204   0.200   0.196   0.201   0.206   0.200   0.194   0.189   0.178   0.184   0.176   0.168   0.178   0.187   0.180   0.179   0.182   0.180   0.191   0.185   0.187   0.187   0.189
    47.50    0.197   0.196   0.192   0.193   0.190   0.200   0.204   0.203   0.203   0.213   0.209   0.212   0.205   0.195   0.192   0.185   0.191   0.198   0.194   0.189   0.187   0.181   0.187   0.186   0.181   0.181   0.181   0.166   0.174   0.172   0.185   0.199   0.194   0.199   0.194
    42.85    0.191   0.200   0.191   0.192   0.193   0.191   0.194   0.192   0.191   0.203   0.198   0.205   0.204   0.184   0.192   0.191   0.187   0.193   0.195   0.197   0.195   0.184   0.195   0.188   0.180   0.174   0.169   0.180   0.174   0.170   0.179   0.180   0.195   0.195   0.197
    38.20    0.201   0.195   0.197   0.192   0.192   0.190   0.182   0.180   0.187   0.196   0.198   0.212   0.194   0.193   0.204   0.208   0.200   0.195   0.199   0.203   0.205   0.203   0.188   0.195   0.182   0.182   0.190   0.191   0.192   0.183   0.190   0.185   0.193   0.186   0.196
    33.55    0.184   0.191   0.188   0.183   0.184   0.182   0.183   0.183   0.192   0.205   0.213   0.203   0.197   0.206   0.204   0.204   0.197   0.200   0.207   0.207   0.197   0.201   0.198   0.185   0.197   0.195   0.190   0.194   0.187   0.191   0.188   0.182   0.188   0.197   0.195
    28.90    0.188   0.185   0.186   0.195   0.193   0.185   0.181   0.195   0.186   0.207   0.208   0.201   0.200   0.201   0.197   0.193   0.195   0.198   0.204   0.197   0.202   0.194   0.184   0.182   0.193   0.197   0.195   0.193   0.194   0.188   0.187   0.182   0.189   0.189   0.189
    24.25    0.193   0.193   0.188   0.198   0.194   0.191   0.192   0.183   0.194   0.200   0.193   0.192   0.191   0.195   0.197   0.200   0.196   0.196   0.199   0.198   0.196   0.195   0.186   0.190   0.193   0.199   0.193   0.184   0.184   0.194   0.197   0.189   0.192   0.188   0.187
    19.60    0.200   0.200   0.192   0.192   0.197   0.195   0.187   0.191   0.179   0.197   0.197   0.188   0.184   0.189   0.197   0.202   0.188   0.194   0.193   0.197   0.188   0.179   0.185   0.190   0.199   0.191   0.190   0.180   0.186   0.196   0.193   0.191   0.190   0.188   0.188
    14.95    0.196   0.195   0.196   0.195   0.193   0.195   0.194   0.187   0.182   0.190   0.199   0.191   0.181   0.188   0.201   0.192   0.193   0.187   0.190   0.181   0.186   0.186   0.186   0.192   0.190   0.197   0.197   0.190   0.188   0.186   0.187   0.182   0.188   0.186   0.177
    10.30    0.197   0.196   0.194   0.204   0.209   0.197   0.186   0.186   0.182   0.182   0.189   0.182   0.184   0.184   0.190   0.194   0.190   0.193   0.194   0.183   0.183   0.187   0.181   0.175   0.181   0.197   0.206   0.184   0.190   0.183   0.189   0.190   0.186   0.177   0.178
     5.65    0.194   0.196   0.204   0.212   0.210   0.189   0.185   0.188   0.193   0.189   0.190   0.180   0.177   0.182   0.191   0.188   0.189   0.196   0.194   0.186   0.177   0.183   0.182   0.182   0.189   0.197   0.200   0.205   0.194   0.187   0.200   0.190   0.183   0.182   0.182
     1.00    0.200   0.202   0.209   0.210   0.207   0.191   0.189   0.190   0.194   0.200   0.199   0.186   0.180   0.190   0.182   0.181   0.188   0.197   0.192   0.181   0.189   0.186   0.189   0.194   0.198   0.200   0.192   0.196   0.196   0.195   0.192   0.178   0.178   0.175   0.169

   Height   Standard deviation at grid points for the w component:
   168.40    0.127   0.125   0.121   0.117   0.121   0.118   0.121   0.119   0.119   0.118   0.119   0.115   0.115   0.113   0.119   0.120   0.123   0.127   0.124   0.122   0.123   0.118   0.116   0.110   0.109   0.111   0.110   0.112   0.115   0.119   0.113   0.110   0.111   0.108   0.110
   163.75    0.123   0.124   0.119   0.118   0.120   0.119   0.121   0.122   0.122   0.118   0.118   0.118   0.120   0.122   0.116   0.123   0.123   0.119   0.120   0.118   0.120   0.115   0.115   0.113   0.114   0.115   0.116   0.113   0.116   0.115   0.109   0.107   0.111   0.110   0.111
   159.10    0.120   0.120   0.122   0.118   0.122   0.124   0.124   0.121   0.124   0.121   0.119   0.120   0.121   0.116   0.117   0.117   0.121   0.122   0.117   0.117   0.115   0.113   0.113   0.115   0.115   0.112   0.110   0.113   0.116   0.116   0.109   0.111   0.110   0.111   0.113
   154.45    0.123   0.121   0.121   0.120   0.119   0.121   0.122   0.120   0.119   0.119   0.117   0.116   0.117   0.113   0.113   0.114   0.117   0.111   0.115   0.116   0.114   0.112   0.112   0.114   0.113   0.114   0.118   0.118   0.115   0.113   0.111   0.111   0.111   0.112   0.110
   149.80    0.123   0.123   0.121   0.120   0.123   0.128   0.121   0.118   0.111   0.114   0.114   0.118   0.115   0.117   0.109   0.113   0.117   0.114   0.113   0.115   0.111   0.118   0.113   0.112   0.116   0.116   0.116   0.112   0.115   0.112   0.107   0.111   0.107   0.112   0.110
   145.15    0.121   0.124   0.122   0.120   0.123   0.125   0.128   0.126   0.116   0.118   0.117   0.116   0.120   0.117   0.113   0.115   0.115   0.112   0.108   0.116   0.117   0.124   0.124   0.118   0.116   0.117   0.112   0.116   0.111   0.113   0.112   0.111   0.109   0.109   0.108
   140.50    0.131   0.127   0.129   0.122   0.123   0.128   0.127   0.122   0.123   0.127   0.121   0.121   0.116   0.118   0.117   0.117   0.114   0.115   0.115   0.117   0.120   0.118   0.120   0.120   0.120   0.115   0.113   0.116   0.114   0.109   0.111   0.112   0.109   0.110   0.114
   135.85    0.125   0.123   0.128   0.124   0.124   0.127   0.132   0.127   0.128   0.128   0.133   0.131   0.126   0.119   0.113   0.113   0.115   0.118   0.117   0.119   0.121   0.121   0.117   0.115   0.115   0.111   0.111   0.114   0.116   0.113   0.111   0.113   0.115   0.109   0.116
   131.20    0.123   0.124   0.127   0.128   0.125   0.128   0.135   0.132   0.133   0.130   0.134   0.131   0.130   0.122   0.117   0.118   0.121   0.116   0.115   0.120   0.123   0.120   0.114   0.114   0.111   0.109   0.110   0.111   0.113   0.110   0.114   0.116   0.116   0.112   0.115
   126.55    0.122   0.122   0.122   0.121   0.128   0.127   0.130   0.138   0.133   0.132   0.139   0.138   0.136   0.129   0.121   0.119   0.122   0.122   0.121   0.116   0.118   0.119   0.115   0.115   0.113   0.111   0.111   0.111   0.108   0.114   0.112   0.115   0.111   0.111   0.113
   121.90    0.121   0.116   0.120   0.122   0.117   0.122   0.128   0.137   0.135   0.136   0.138   0.137   0.132   0.129   0.130   0.128   0.130   0.126   0.122   0.117   0.115   0.117   0.114   0.112   0.112   0.110   0.111   0.113   0.111   0.114   0.114   0.113   0.114   0.109   0.117
   117.25    0.117   0.124   0.122   0.122   0.120   0.125   0.133   0.137   0.139   0.137   0.138   0.135   0.131   0.128   0.124   0.131   0.127   0.132   0.121   0.122   0.113   0.115   0.114   0.116   0.114   0.113   0.115   0.111   0.111   0.110   0.114   0.112   0.114   0.117   0.118
   112.60    0.124   0.123   0.124   0.123   0.122   0.126   0.136   0.138   0.138   0.140   0.136   0.130   0.128   0.124   0.129   0.127   0.127   0.127   0.124   0.120   0.117   0.115   0.113   0.115   0.115   0.114   0.111   0.111   0.112   0.110   0.114   0.114   0.117   0.116   0.120
   107.95    0.127   0.131   0.123   0.131   0.126   0.126   0.129   0.132   0.136   0.133   0.131   0.131   0.127   0.126   0.118   0.122   0.129   0.123   0.123   0.119   0.118   0.113   0.111   0.111   0.114   0.113   0.113   0.113   0.119   0.112   0.116   0.113   0.114   0.122   0.123
   103.30    0.127   0.132   0.129   0.129   0.130   0.129   0.127   0.129   0.130   0.133   0.130   0.123   0.125   0.121   0.119   0.122   0.122   0.120   0.116   0.115   0.114   0.117   0.114   0.111   0.115   0.113   0.117   0.114   0.117   0.117   0.118   0.117   0.119   0.127   0.125
    98.65    0.129   0.131   0.131   0.127   0.127   0.122   0.130   0.129   0.133   0.130   0.123   0.123   0.123   0.120   0.119   0.122   0.120   0.116   0.112   0.111   0.115   0.114   0.113   0.117   0.113   0.119   0.118   0.119   0.113   0.112   0.115   0.110   0.116   0.124   0.122
    94.00    0.133   0.140   0.134   0.131   0.126   0.125   0.126   0.127   0.131   0.128   0.119   0.120   0.117   0.124   0.120   0.116   0.120   0.117   0.111   0.108   0.111   0.113   0.110   0.110   0.116   0.122   0.115   0.115   0.114   0.113   0.113   0.117   0.119   0.120   0.125
    89.35    0.129   0.129   0.126   0.122   0.123   0.117   0.118   0.121   0.124   0.120   0.119   0.114   0.118   0.119   0.116   0.113   0.118   0.109   0.110   0.113   0.114   0.116   0.114   0.114   0.120   0.115   0.112   0.116   0.114   0.112   0.120   0.120   0.120   0.121   0.122
    84.70    0.124   0.123   0.122   0.113   0.116   0.117   0.119   0.117   0.115   0.119   0.115   0.115   0.116   0.117   0.116   0.112   0.116   0.118   0.111   0.112   0.114   0.112   0.114   0.114   0.117   0.119   0.116   0.117   0.115   0.119   0.122   0.125   0.120   0.117   0.121
    80.05    0.122   0.120   0.116   0.113   0.114   0.112   0.118   0.121   0.112   0.111   0.110   0.113   0.119   0.120   0.116   0.118   0.115   0.116   0.114   0.114   0.112   0.111   0.110   0.109   0.113   0.109   0.109   0.114   0.120   0.120   0.118   0.126   0.127   0.122   0.123
    75.40    0.124   0.116   0.113   0.112   0.115   0.118   0.115   0.115   0.112   0.110   0.112   0.115   0.112   0.114   0.115   0.118   0.114   0.114   0.119   0.123   0.115   0.110   0.110   0.116   0.115   0.109   0.110   0.114   0.117   0.123   0.122   0.117   0.118   0.119   0.123
    70.75    0.122   0.118   0.117   0.116   0.114   0.115   0.113   0.114   0.111   0.113   0.117   0.116   0.116   0.116   0.116   0.112   0.115   0.115   0.115   0.116   0.116   0.113   0.116   0.116   0.114   0.108   0.111   0.115   0.120   0.122   0.120   0.115   0.114   0.120   0.118
    66.10    0.119   0.116   0.113   0.114   0.121   0.116   0.114   0.109   0.112   0.112   0.116   0.116   0.119   0.119   0.117   0.108   0.111   0.112   0.109   0.115   0.118   0.116   0.113   0.118   0.113   0.114   0.115   0.117   0.119   0.117   0.118   0.117   0.118   0.119   0.120
    61.45    0.112   0.118   0.113   0.119   0.120   0.113   0.110   0.111   0.109   0.113   0.112   0.111   0.116   0.118   0.113   0.110   0.111   0.112   0.115   0.116   0.115   0.113   0.115   0.119   0.112   0.113   0.114   0.118   0.120   0.115   0.114   0.115   0.113   0.117   0.115
    56.80    0.108   0.113   0.114   0.118   0.118   0.114   0.113   0.112   0.109   0.111   0.109   0.113   0.112   0.118   0.112   0.111   0.110   0.111   0.117   0.111   0.112   0.118   0.118   0.117   0.114   0.109   0.114   0.120   0.121   0.116   0.112   0.112   0.112   0.122   0.119
    52.15    0.107   0.109   0.115   0.115   0.117   0.111   0.108   0.107   0.109   0.112   0.108   0.109   0.111   0.113   0.114   0.112   0.109   0.115   0.116   0.115   0.118   0.121   0.121   0.113   0.113   0.106   0.111   0.118   0.120   0.117   0.114   0.111   0.116   0.115   0.120
    47.50    0.108   0.113   0.114   0.117   0.115   0.109   0.108   0.110   0.111   0.112   0.109   0.113   0.117   0.114   0.119   0.109   0.112   0.114   0.121   0.123   0.121   0.120   0.119   0.115   0.114   0.109   0.110   0.115   0.116   0.111   0.112   0.109   0.112   0.119   0.120
    42.85    0.113   0.114   0.113   0.120   0.122   0.113   0.112   0.112   0.111   0.113   0.113   0.111   0.114   0.110   0.114   0.112   0.114   0.114   0.115   0.120   0.116   0.119   0.115   0.115   0.110   0.109   0.110   0.115   0.112   0.113   0.112   0.112   0.112   0.119   0.118
    38.20    0.114   0.113   0.123   0.124   0.129   0.122   0.117   0.111   0.110   0.114   0.116   0.112   0.111   0.113   0.113   0.117   0.114   0.110   0.113   0.120   0.121   0.116   0.120   0.117   0.111   0.108   0.111   0.114   0.113   0.110   0.111   0.112   0.112   0.114   0.112
    33.55    0.111   0.111   0.118   0.118   0.126   0.123   0.117   0.112   0.110   0.115   0.113   0.116   0.115   0.113   0.110   0.114   0.112   0.110   0.115   0.121   0.119   0.115   0.121   0.113   0.115   0.110   0.110   0.112   0.116   0.114   0.114   0.114   0.117   0.112   0.113
    28.90    0.110   0.113   0.114   0.120   0.121   0.118   0.119   0.113   0.117   0.115   0.115   0.115   0.115   0.111   0.109   0.112   0.112   0.114   0.114   0.119   0.120   0.121   0.123   0.120   0.114   0.112   0.114   0.112   0.110   0.115   0.115   0.114   0.112   0.113   0.111
    24.25    0.108   0.110   0.117   0.122   0.118   0.115   0.113   0.111   0.120   0.117   0.117   0.118   0.117   0.111   0.112   0.113   0.112   0.108   0.114   0.116   0.116   0.112   0.120   0.121   0.119   0.116   0.111   0.112   0.112   0.112   0.116   0.115   0.111   0.108   0.113
    19.60    0.116   0.119   0.120   0.122   0.119   0.119   0.117   0.115   0.123   0.119   0.117   0.116   0.118   0.116   0.118   0.117   0.109   0.107   0.109   0.114   0.111   0.114   0.114   0.125   0.118   0.115   0.115   0.112   0.110   0.115   0.112   0.114   0.115   0.108   0.112
    14.95    0.111   0.119   0.126   0.122   0.120   0.121   0.114   0.117   0.124   0.119   0.122   0.113   0.120   0.121   0.118   0.114   0.114   0.109   0.113   0.112   0.119   0.116   0.117   0.118   0.115   0.119   0.117   0.116   0.111   0.114   0.114   0.113   0.116   0.113   0.112
    10.30    0.112   0.109   0.120   0.121   0.121   0.124   0.119   0.112   0.120   0.120   0.119   0.120   0.123   0.121   0.118   0.111   0.112   0.117   0.112   0.110   0.114   0.117   0.115   0.118   0.114   0.115   0.111   0.110   0.106   0.113   0.112   0.114   0.109   0.115   0.119
     5.65    0.113   0.113   0.117   0.115   0.116   0.119   0.119   0.117   0.117   0.116   0.118   0.120   0.121   0.117   0.115   0.114   0.118   0.119   0.112   0.111   0.111   0.112   0.117   0.117   0.120   0.117   0.110   0.109   0.107   0.106   0.105   0.109   0.111   0.116   0.117
     1.00    0.116   0.112   0.112   0.114   0.119   0.118   0.114   0.122   0.114   0.115   0.114   0.120   0.121   0.115   0.113   0.116   0.114   0.115   0.112   0.115   0.110   0.107   0.114   0.117   0.116   0.120   0.115   0.112   0.109   0.109   0.108   0.110   0.113   0.117   0.116

   Mean standard deviation across all grid points:
      u component:    0.274 m/s
      v component:    0.190 m/s
      w component:    0.117 m/s


U-component (X) statistics from the interpolated hub point:

   Mean =   9.9913 m/s
   TI   =   2.5239 %


Processing complete.  6249.5 CPU seconds used.
