
This summary file was generated by TurbSim (from OpenFAST-v3.5.3) on 19-Apr-2025 at 23:44:05.


Runtime Options:

**********  Random seed #1
    RANLUX  Type of random number generator
         F  Output binary HH turbulence parameters?
         F  Output formatted turbulence parameters?
         F  Output AeroDyn HH files?
         T  Output AeroDyn FF files?
         F  Output BLADED FF files?
         F  Output tower data?
         F  Output HAWC FF files?
         F  Output formatted FF files?
         T  Output coherent turbulence time step file?
 0 -  NONE  IEC turbulence models scaled to exact specified standard deviation


Turbine/Model Specifications:

        39  Vertical grid-point matrix dimension
       193  Horizontal grid-point matrix dimension
     0.250  Time step [seconds]
   900.000  Analysis time [seconds]
   900.000  Usable output time [seconds]
   177.700  Hub height [m]
   353.400  Grid height [m]
  1785.600  Grid width [m]
     0.000  Vertical flow angle [degrees]
     0.000  Horizontal flow angle [degrees]


Meteorological Boundary Conditions:

    IECKAI  IEC Kaimal spectral model
         1  IEC standard: IEC 61400-1 Ed. 3: 2005
     5.000  Percent turbulence intensity, IEC 61400-1 Ed. 3: 2005
       NTM  IEC Normal Turbulence Model
       N/A  IEC Extreme Turbulence Model (ETM) "c" parameter [m/s]
       USR  Wind profile type
    90.000  Reference height [m]
       N/A  Reference wind speed [m/s]
       N/A  Jet height [m]
       N/A  Power law exponent
     0.030  Surface roughness length [m]


Non-IEC Meteorological Boundary Conditions:

       N/A  Site latitude [degrees]
       N/A  Gradient Richardson number
       N/A  Friction or shear velocity [m/s]
       N/A  Mixing layer depth [m]
       N/A  Mean hub u'w' Reynolds stress
       N/A  Mean hub u'v' Reynolds stress
       N/A  Mean hub v'w' Reynolds stress


Spatial Coherence Models:

       IEC  u-component coherence model
       IEC  v-component coherence model
       IEC  w-component coherence model
(   12.000, 0.353E-03)  u-component coherence parameters
(   12.000, 0.353E-03)  v-component coherence parameters
(   12.000, 0.353E-03)  w-component coherence parameters
       N/A  Coherence exponent


User-Defined Profiles:

  Height   Wind Speed   Horizontal Angle
   (m)        (m/s)          (deg)      
  ------   ----------   ----------------
  353.40      10.00         318.19
  334.80      10.00         321.14
  316.20      10.00         324.10
  297.60      10.00         327.05
  279.00      10.00         330.00
  260.40      10.00         332.95
  241.80      10.00         335.90
  223.20      10.00         338.86
  204.60      10.00         341.81
  186.00      10.00         344.76
  167.40      10.00         347.71
  148.80      10.00         350.67
  130.20      10.00         353.62
  111.60      10.00         356.57
   93.00      10.00         359.52
   74.40      10.00           2.48
   55.80      10.00           5.43
   37.20      10.00           8.38
   18.60      10.00          11.33
    0.00      10.00          14.29


You have requested that the following file(s) be generated:

   /kfs3/scratch/agupta/Projects/RL_Incubator/FinalRuns_Veer/Seed4/./FFSim_Seed4/Cond00_v10.0_PL0.12_TI5.0/Seed_7/Low.bts (AeroDyn/TurbSim full-field wind file)


Turbulence Simulation Scaling Parameter Summary:

   Turbulence model used                            =  IEC Kaimal
   Turbulence characteristic                        =  User-specified
   IEC standard                                     =  IEC 61400-1 Ed. 3: 2005
   Mean wind speed at hub height                    =   10.000 m/s
   Characteristic value of standard deviation       =    0.500 m/s
   Turbulence scale                                 =   42.000 m
   u-component integral scale                       =  340.200 m
   Coherency scale                                  =  340.200 m
   Characteristic value of hub turbulence intensity =    5.000%
   Gradient Richardson number                       =    0.000

   Wind profile type                                =  Linear interpolation of user-defined profile
   Equivalent power law exponent (upper rotor disk) =    0.000
   Mean shear across rotor disk                     =    0.000 (m/s)/m
   Assumed rotor diameter                           =  353.400 m
   Surface roughness length                         =    0.030 m

   Nyquist frequency of turbulent wind field        =    2.000 Hz

   Number of time steps in the FFT                  =     3600
   Number of time steps output                      =     3600
   Number of points simulated                       =     7527


Mean Flow Angles:

   Vertical   =   0.0 degrees
   Horizontal =   0.0 degrees

Mean Wind Speed Profile:

   Height    Wind Speed   Horizontal Angle  Vertical Angle  U-comp (X)   V-comp (Y)   W-comp (Z)
     (m)        (m/s)         (degrees)       (degrees)       (m/s)        (m/s)        (m/s)   
   ------    ----------   ----------------  --------------  ----------   ----------   ----------
    354.4       10.00          318.19            0.00          7.45        -6.67         0.00
    345.1       10.00          319.51            0.00          7.60        -6.49         0.00
    335.8       10.00          320.98            0.00          7.77        -6.30         0.00
    326.5       10.00          322.46            0.00          7.93        -6.09         0.00
    317.2       10.00          323.94            0.00          8.08        -5.89         0.00
    307.9       10.00          325.41            0.00          8.23        -5.68         0.00
    298.6       10.00          326.89            0.00          8.38        -5.46         0.00
    289.3       10.00          328.37            0.00          8.51        -5.25         0.00
    280.0       10.00          329.84            0.00          8.65        -5.02         0.00
    270.7       10.00          331.32            0.00          8.77        -4.80         0.00
    261.4       10.00          332.79            0.00          8.89        -4.57         0.00
    252.1       10.00          334.27            0.00          9.01        -4.34         0.00
    242.8       10.00          335.75            0.00          9.12        -4.11         0.00
    233.5       10.00          337.22            0.00          9.22        -3.87         0.00
    224.2       10.00          338.70            0.00          9.32        -3.63         0.00
    214.9       10.00          340.17            0.00          9.41        -3.39         0.00
    205.6       10.00          341.65            0.00          9.49        -3.15         0.00
    196.3       10.00          343.13            0.00          9.57        -2.90         0.00
    187.0       10.00          344.60            0.00          9.64        -2.66         0.00
    177.7       10.00          346.08            0.00          9.71        -2.41         0.00
    168.4       10.00          347.56            0.00          9.77        -2.15         0.00
    159.1       10.00          349.03            0.00          9.82        -1.90         0.00
    149.8       10.00          350.51            0.00          9.86        -1.65         0.00
    140.5       10.00          351.98            0.00          9.90        -1.39         0.00
    131.2       10.00          353.46            0.00          9.93        -1.14         0.00
    121.9       10.00          354.94            0.00          9.96        -0.88         0.00
    112.6       10.00          356.41            0.00          9.98        -0.63         0.00
    103.3       10.00          357.89            0.00          9.99        -0.37         0.00
     94.0       10.00          359.37            0.00         10.00        -0.11         0.00
     84.7       10.00          360.84            0.00         10.00         0.15         0.00
     75.4       10.00          362.32            0.00          9.99         0.40         0.00
     66.1       10.00            3.79            0.00          9.98         0.66         0.00
     56.8       10.00            5.27            0.00          9.96         0.92         0.00
     47.5       10.00            6.75            0.00          9.93         1.17         0.00
     38.2       10.00            8.22            0.00          9.90         1.43         0.00
     28.9       10.00            9.70            0.00          9.86         1.68         0.00
     19.6       10.00           11.17            0.00          9.81         1.94         0.00
     10.3       10.00           12.65            0.00          9.76         2.19         0.00
      1.0       10.00           14.13            0.00          9.70         2.44         0.00


Harvested Random Seeds after Generation of the Random Numbers:

    377667225 K 1
            0 K 2


Hub-Height Simulated Turbulence Statistical Summary:

   Type of Wind        Min (m/s)   Mean (m/s)    Max (m/s)  Sigma (m/s)       TI (%)
   ----------------    ---------   ----------    ---------  -----------       ------
   Longitudinal (u)         8.40        10.00        11.66        0.487        4.870
   Lateral (v)             -1.46        -0.00         1.43        0.408        4.084
   Vertical (w)            -0.83        -0.00         0.79        0.235        2.350
   U component              8.27         9.71        11.39        0.469        4.836
   V component             -3.91        -2.41        -1.12        0.429        4.416
   W component             -0.83        -0.00         0.79        0.235        2.422
   Horizontal (U&V)         8.42        10.01        11.66        0.487        4.864
   Total                    8.42        10.01        11.66        0.487        4.861

                       Min Reynolds     Mean Reynolds    Max Reynolds    Correlation
   Product             Stress (m/s)^2   Stress (m/s)^2   Stress (m/s)^2  Coefficient
   ----------------    --------------   --------------   --------------  -----------
   u'w'                     -0.812            -0.006             0.695        -0.051
   u'v'                     -1.087            -0.027             0.859        -0.138
   v'w'                     -0.512            -0.002             0.518        -0.018


   Friction Velocity (Ustar)  =      0.076 m/s
   Maximum Instantaneous TKE  =      1.440 (m/s)^2
   Maximum Instantaneous CTKE =      0.566 (m/s)^2


Grid Point Variance Summary:

   Y-coord -892.80 -883.50 -874.20 -864.90 -855.60 -846.30 -837.00 -827.70 -818.40 -809.10 -799.80 -790.50 -781.20 -771.90 -762.60 -753.30 -744.00 -734.70 -725.40 -716.10 -706.80 -697.50 -688.20 -678.90 -669.60 -660.30 -651.00 -641.70 -632.40 -623.10 -613.80 -604.50 -595.20 -585.90 -576.60 -567.30 -558.00 -548.70 -539.40 -530.10 -520.80 -511.50 -502.20 -492.90 -483.60 -474.30 -465.00 -455.70 -446.40 -437.10 -427.80 -418.50 -409.20 -399.90 -390.60 -381.30 -372.00 -362.70 -353.40 -344.10 -334.80 -325.50 -316.20 -306.90 -297.60 -288.30 -279.00 -269.70 -260.40 -251.10 -241.80 -232.50 -223.20 -213.90 -204.60 -195.30 -186.00 -176.70 -167.40 -158.10 -148.80 -139.50 -130.20 -120.90 -111.60 -102.30  -93.00  -83.70  -74.40  -65.10  -55.80  -46.50  -37.20  -27.90  -18.60   -9.30    0.00    9.30   18.60   27.90   37.20   46.50   55.80   65.10   74.40   83.70   93.00  102.30  111.60  120.90  130.20  139.50  148.80  158.10  167.40  176.70  186.00  195.30  204.60  213.90  223.20  232.50  241.80  251.10  260.40  269.70  279.00  288.30  297.60  306.90  316.20  325.50  334.80  344.10  353.40  362.70  372.00  381.30  390.60  399.90  409.20  418.50  427.80  437.10  446.40  455.70  465.00  474.30  483.60  492.90  502.20  511.50  520.80  530.10  539.40  548.70  558.00  567.30  576.60  585.90  595.20  604.50  613.80  623.10  632.40  641.70  651.00  660.30  669.60  678.90  688.20  697.50  706.80  716.10  725.40  734.70  744.00  753.30  762.60  771.90  781.20  790.50  799.80  809.10  818.40  827.70  837.00  846.30  855.60  864.90  874.20  883.50  892.80

   Height   Standard deviation at grid points for the u component:
   354.40    0.416   0.399   0.398   0.424   0.436   0.460   0.474   0.495   0.486   0.464   0.457   0.431   0.436   0.464   0.483   0.471   0.493   0.462   0.454   0.460   0.470   0.478   0.477   0.497   0.464   0.462   0.451   0.447   0.468   0.458   0.470   0.494   0.472   0.440   0.470   0.451   0.463   0.487   0.470   0.437   0.458   0.416   0.422   0.442   0.412   0.435   0.459   0.494   0.453   0.454   0.462   0.432   0.416   0.404   0.408   0.420   0.427   0.403   0.398   0.390   0.406   0.409   0.434   0.440   0.477   0.449   0.443   0.438   0.476   0.468   0.463   0.475   0.520   0.461   0.468   0.474   0.491   0.494   0.468   0.464   0.449   0.458   0.459   0.423   0.437   0.442   0.479   0.474   0.457   0.445   0.462   0.505   0.479   0.499   0.468   0.455   0.511   0.505   0.539   0.533   0.521   0.528   0.528   0.487   0.469   0.446   0.404   0.433   0.434   0.448   0.473   0.481   0.466   0.470   0.462   0.450   0.473   0.465   0.432   0.393   0.431   0.430   0.394   0.378   0.422   0.397   0.378   0.423   0.426   0.451   0.472   0.495   0.516   0.467   0.490   0.455   0.435   0.438   0.447   0.435   0.447   0.451   0.416   0.425   0.419   0.446   0.411   0.431   0.419   0.361   0.380   0.371   0.386   0.381   0.400   0.414   0.440   0.419   0.418   0.418   0.394   0.374   0.382   0.415   0.435   0.433   0.433   0.430   0.434   0.454   0.452   0.446   0.431   0.473   0.520   0.530   0.540   0.528   0.507   0.518   0.562   0.546   0.539   0.551   0.586   0.590   0.589   0.545   0.576   0.537   0.531   0.519   0.532
   345.10    0.421   0.441   0.425   0.457   0.484   0.504   0.463   0.485   0.476   0.471   0.460   0.442   0.421   0.468   0.444   0.436   0.452   0.443   0.435   0.444   0.481   0.468   0.500   0.519   0.487   0.450   0.416   0.452   0.460   0.457   0.466   0.473   0.461   0.437   0.468   0.471   0.466   0.489   0.490   0.448   0.430   0.411   0.418   0.452   0.437   0.451   0.480   0.455   0.463   0.461   0.433   0.427   0.404   0.411   0.445   0.447   0.423   0.416   0.444   0.425   0.425   0.429   0.420   0.411   0.435   0.450   0.448   0.448   0.440   0.486   0.471   0.474   0.454   0.481   0.494   0.480   0.508   0.454   0.430   0.431   0.425   0.459   0.463   0.455   0.448   0.440   0.489   0.472   0.462   0.458   0.492   0.496   0.514   0.473   0.452   0.487   0.506   0.521   0.531   0.510   0.502   0.533   0.540   0.519   0.483   0.501   0.458   0.442   0.432   0.476   0.492   0.507   0.476   0.471   0.463   0.474   0.478   0.482   0.436   0.390   0.411   0.427   0.377   0.425   0.390   0.392   0.411   0.400   0.406   0.459   0.476   0.470   0.504   0.504   0.508   0.465   0.451   0.444   0.469   0.447   0.463   0.482   0.451   0.408   0.421   0.400   0.393   0.401   0.393   0.356   0.373   0.385   0.373   0.390   0.391   0.402   0.425   0.433   0.418   0.420   0.402   0.384   0.371   0.392   0.418   0.440   0.417   0.421   0.450   0.465   0.452   0.466   0.470   0.486   0.522   0.541   0.533   0.529   0.491   0.522   0.576   0.567   0.530   0.553   0.584   0.578   0.522   0.517   0.553   0.585   0.533   0.524   0.532
   335.80    0.439   0.437   0.458   0.489   0.496   0.516   0.492   0.497   0.484   0.477   0.462   0.454   0.435   0.468   0.484   0.460   0.411   0.432   0.443   0.426   0.470   0.468   0.469   0.489   0.481   0.463   0.441   0.446   0.440   0.450   0.455   0.443   0.420   0.432   0.419   0.426   0.421   0.443   0.484   0.442   0.419   0.413   0.421   0.422   0.415   0.460   0.497   0.474   0.442   0.442   0.428   0.396   0.413   0.413   0.432   0.460   0.454   0.429   0.426   0.447   0.438   0.425   0.444   0.440   0.448   0.420   0.451   0.449   0.461   0.460   0.444   0.458   0.477   0.456   0.493   0.497   0.500   0.452   0.424   0.425   0.438   0.476   0.445   0.476   0.447   0.440   0.472   0.503   0.494   0.491   0.518   0.530   0.524   0.491   0.476   0.513   0.535   0.551   0.534   0.539   0.514   0.532   0.552   0.528   0.486   0.497   0.446   0.417   0.422   0.461   0.475   0.527   0.500   0.479   0.462   0.477   0.468   0.475   0.446   0.406   0.419   0.439   0.424   0.446   0.423   0.409   0.425   0.437   0.430   0.461   0.477   0.476   0.480   0.482   0.460   0.464   0.447   0.457   0.454   0.473   0.439   0.440   0.451   0.404   0.408   0.412   0.397   0.389   0.375   0.353   0.367   0.355   0.345   0.396   0.389   0.410   0.402   0.410   0.425   0.399   0.398   0.374   0.396   0.394   0.429   0.422   0.419   0.423   0.433   0.451   0.462   0.446   0.469   0.496   0.509   0.537   0.523   0.522   0.505   0.539   0.578   0.581   0.539   0.537   0.544   0.527   0.516   0.510   0.565   0.527   0.561   0.532   0.559
   326.50    0.424   0.442   0.480   0.509   0.518   0.567   0.538   0.481   0.505   0.483   0.455   0.463   0.425   0.465   0.488   0.457   0.446   0.430   0.461   0.452   0.467   0.449   0.457   0.441   0.464   0.473   0.481   0.444   0.473   0.487   0.491   0.481   0.455   0.434   0.428   0.407   0.451   0.475   0.461   0.429   0.419   0.449   0.450   0.431   0.449   0.469   0.486   0.495   0.459   0.425   0.416   0.414   0.420   0.426   0.420   0.435   0.426   0.411   0.442   0.444   0.455   0.436   0.456   0.429   0.446   0.426   0.441   0.484   0.494   0.500   0.470   0.450   0.478   0.503   0.506   0.502   0.462   0.472   0.430   0.430   0.437   0.454   0.448   0.491   0.489   0.476   0.486   0.499   0.506   0.488   0.547   0.522   0.499   0.496   0.500   0.462   0.509   0.506   0.532   0.505   0.498   0.517   0.529   0.567   0.518   0.503   0.470   0.429   0.445   0.448   0.464   0.478   0.479   0.477   0.465   0.491   0.459   0.470   0.420   0.413   0.422   0.411   0.422   0.422   0.428   0.443   0.414   0.442   0.448   0.476   0.449   0.450   0.455   0.474   0.461   0.454   0.435   0.436   0.448   0.459   0.472   0.455   0.457   0.435   0.444   0.443   0.424   0.374   0.381   0.384   0.378   0.367   0.370   0.379   0.384   0.399   0.394   0.396   0.436   0.436   0.404   0.409   0.417   0.414   0.436   0.420   0.419   0.426   0.426   0.425   0.460   0.487   0.461   0.471   0.514   0.533   0.497   0.543   0.537   0.541   0.570   0.573   0.559   0.583   0.552   0.497   0.521   0.548   0.548   0.552   0.537   0.527   0.533
   317.20    0.436   0.437   0.469   0.500   0.516   0.528   0.496   0.499   0.531   0.483   0.477   0.458   0.460   0.476   0.492   0.454   0.449   0.456   0.455   0.482   0.455   0.469   0.445   0.444   0.429   0.452   0.477   0.452   0.443   0.508   0.503   0.486   0.445   0.420   0.436   0.413   0.475   0.498   0.468   0.439   0.440   0.430   0.481   0.475   0.463   0.482   0.494   0.484   0.460   0.432   0.416   0.429   0.436   0.454   0.430   0.453   0.437   0.402   0.438   0.470   0.453   0.438   0.438   0.424   0.431   0.436   0.458   0.457   0.486   0.509   0.522   0.483   0.487   0.478   0.505   0.515   0.485   0.459   0.428   0.403   0.421   0.450   0.449   0.473   0.475   0.466   0.493   0.479   0.510   0.529   0.543   0.472   0.476   0.492   0.479   0.461   0.474   0.503   0.492   0.515   0.518   0.497   0.487   0.504   0.502   0.499   0.482   0.466   0.413   0.422   0.440   0.417   0.463   0.437   0.429   0.421   0.466   0.502   0.446   0.440   0.416   0.401   0.424   0.436   0.436   0.424   0.428   0.419   0.441   0.446   0.454   0.472   0.487   0.472   0.453   0.428   0.427   0.421   0.435   0.463   0.484   0.456   0.440   0.441   0.458   0.431   0.421   0.408   0.402   0.386   0.351   0.371   0.375   0.382   0.367   0.398   0.412   0.429   0.440   0.425   0.406   0.376   0.409   0.418   0.416   0.425   0.451   0.440   0.455   0.453   0.453   0.482   0.463   0.471   0.512   0.512   0.486   0.538   0.555   0.569   0.566   0.593   0.598   0.597   0.539   0.541   0.508   0.527   0.525   0.532   0.531   0.515   0.512
   307.90    0.425   0.423   0.476   0.487   0.495   0.489   0.480   0.472   0.514   0.494   0.450   0.465   0.490   0.494   0.463   0.467   0.476   0.463   0.465   0.465   0.455   0.452   0.427   0.413   0.428   0.417   0.451   0.438   0.457   0.491   0.467   0.485   0.456   0.435   0.432   0.459   0.498   0.489   0.478   0.443   0.440   0.426   0.465   0.482   0.480   0.496   0.497   0.494   0.455   0.434   0.429   0.427   0.451   0.469   0.454   0.443   0.429   0.442   0.462   0.470   0.460   0.452   0.433   0.439   0.417   0.433   0.480   0.491   0.469   0.453   0.473   0.477   0.453   0.504   0.499   0.518   0.478   0.454   0.446   0.421   0.424   0.394   0.444   0.446   0.472   0.496   0.470   0.486   0.517   0.537   0.531   0.481   0.442   0.478   0.462   0.468   0.467   0.466   0.435   0.493   0.496   0.510   0.476   0.473   0.496   0.498   0.476   0.437   0.434   0.417   0.440   0.426   0.449   0.452   0.396   0.398   0.428   0.458   0.448   0.423   0.406   0.408   0.429   0.420   0.421   0.416   0.416   0.403   0.427   0.440   0.464   0.485   0.458   0.444   0.420   0.415   0.396   0.379   0.410   0.469   0.469   0.483   0.498   0.485   0.452   0.466   0.391   0.410   0.413   0.367   0.381   0.368   0.363   0.375   0.354   0.383   0.454   0.450   0.469   0.473   0.419   0.397   0.430   0.457   0.458   0.467   0.463   0.474   0.473   0.464   0.474   0.468   0.478   0.474   0.510   0.515   0.515   0.519   0.518   0.543   0.538   0.575   0.588   0.565   0.540   0.514   0.466   0.488   0.531   0.509   0.537   0.487   0.490
   298.60    0.440   0.421   0.457   0.493   0.482   0.488   0.469   0.456   0.482   0.497   0.491   0.499   0.473   0.472   0.473   0.465   0.459   0.469   0.480   0.465   0.440   0.436   0.447   0.434   0.412   0.414   0.422   0.438   0.470   0.464   0.461   0.441   0.447   0.456   0.430   0.471   0.475   0.488   0.493   0.467   0.433   0.422   0.427   0.445   0.486   0.473   0.471   0.483   0.475   0.469   0.434   0.411   0.413   0.431   0.433   0.429   0.409   0.426   0.461   0.443   0.459   0.465   0.467   0.436   0.425   0.475   0.498   0.494   0.466   0.445   0.438   0.467   0.439   0.461   0.500   0.490   0.454   0.454   0.442   0.424   0.436   0.432   0.446   0.453   0.462   0.482   0.474   0.475   0.485   0.513   0.509   0.485   0.468   0.479   0.501   0.479   0.459   0.482   0.500   0.513   0.503   0.490   0.489   0.446   0.426   0.459   0.464   0.434   0.444   0.427   0.434   0.450   0.447   0.431   0.425   0.401   0.420   0.424   0.424   0.415   0.396   0.399   0.423   0.436   0.431   0.417   0.439   0.419   0.445   0.435   0.427   0.444   0.455   0.427   0.409   0.360   0.364   0.366   0.367   0.418   0.431   0.434   0.475   0.480   0.465   0.448   0.428   0.434   0.409   0.365   0.395   0.358   0.338   0.368   0.401   0.384   0.454   0.466   0.455   0.472   0.431   0.411   0.422   0.434   0.445   0.464   0.456   0.444   0.454   0.452   0.473   0.466   0.440   0.500   0.465   0.504   0.521   0.513   0.504   0.524   0.531   0.562   0.546   0.528   0.548   0.487   0.505   0.501   0.491   0.497   0.508   0.478   0.468
   289.30    0.414   0.422   0.447   0.462   0.468   0.464   0.475   0.464   0.474   0.521   0.520   0.495   0.454   0.439   0.425   0.436   0.444   0.440   0.469   0.440   0.449   0.440   0.424   0.421   0.443   0.416   0.424   0.436   0.459   0.461   0.452   0.444   0.425   0.436   0.433   0.434   0.451   0.427   0.482   0.461   0.419   0.424   0.422   0.452   0.474   0.463   0.486   0.419   0.444   0.437   0.422   0.421   0.416   0.450   0.425   0.439   0.437   0.460   0.449   0.423   0.433   0.434   0.472   0.475   0.477   0.499   0.481   0.473   0.444   0.451   0.452   0.430   0.451   0.463   0.468   0.483   0.494   0.458   0.488   0.471   0.449   0.451   0.463   0.496   0.498   0.502   0.479   0.487   0.518   0.478   0.493   0.483   0.457   0.477   0.455   0.443   0.481   0.477   0.506   0.485   0.488   0.487   0.465   0.473   0.463   0.479   0.437   0.438   0.447   0.459   0.429   0.458   0.435   0.436   0.410   0.411   0.398   0.403   0.411   0.426   0.417   0.415   0.397   0.416   0.425   0.408   0.419   0.446   0.471   0.427   0.425   0.462   0.464   0.439   0.424   0.368   0.353   0.385   0.381   0.399   0.426   0.437   0.447   0.464   0.462   0.457   0.439   0.403   0.398   0.385   0.375   0.364   0.372   0.389   0.394   0.418   0.455   0.441   0.432   0.447   0.458   0.435   0.430   0.452   0.454   0.460   0.423   0.435   0.458   0.454   0.454   0.448   0.475   0.517   0.531   0.492   0.535   0.510   0.488   0.501   0.510   0.536   0.502   0.528   0.503   0.475   0.516   0.518   0.522   0.493   0.452   0.425   0.427
   280.00    0.409   0.411   0.420   0.445   0.472   0.459   0.472   0.436   0.492   0.495   0.498   0.469   0.427   0.426   0.441   0.441   0.428   0.444   0.404   0.413   0.440   0.408   0.397   0.446   0.438   0.450   0.468   0.479   0.455   0.457   0.460   0.444   0.433   0.402   0.416   0.466   0.442   0.460   0.443   0.462   0.426   0.423   0.452   0.432   0.451   0.464   0.441   0.452   0.436   0.443   0.434   0.442   0.446   0.430   0.451   0.466   0.446   0.436   0.461   0.447   0.458   0.460   0.485   0.495   0.487   0.509   0.459   0.484   0.454   0.459   0.466   0.475   0.429   0.463   0.448   0.479   0.498   0.491   0.482   0.505   0.467   0.508   0.494   0.524   0.499   0.496   0.453   0.479   0.499   0.514   0.478   0.460   0.494   0.494   0.465   0.421   0.474   0.497   0.501   0.486   0.476   0.470   0.488   0.498   0.496   0.444   0.421   0.454   0.435   0.439   0.424   0.464   0.436   0.441   0.396   0.404   0.416   0.421   0.402   0.411   0.436   0.414   0.377   0.416   0.406   0.404   0.426   0.464   0.437   0.441   0.443   0.453   0.447   0.455   0.431   0.376   0.382   0.400   0.440   0.447   0.450   0.436   0.435   0.476   0.472   0.474   0.431   0.431   0.399   0.409   0.397   0.373   0.373   0.356   0.388   0.424   0.468   0.423   0.438   0.457   0.479   0.445   0.472   0.460   0.457   0.429   0.409   0.428   0.433   0.440   0.446   0.441   0.494   0.490   0.543   0.532   0.519   0.515   0.515   0.505   0.533   0.539   0.540   0.555   0.524   0.508   0.515   0.535   0.487   0.462   0.442   0.422   0.405
   270.70    0.418   0.409   0.421   0.421   0.456   0.462   0.487   0.437   0.484   0.487   0.496   0.468   0.444   0.427   0.446   0.417   0.406   0.403   0.407   0.394   0.401   0.371   0.367   0.409   0.426   0.435   0.441   0.425   0.453   0.419   0.412   0.443   0.434   0.410   0.410   0.421   0.438   0.474   0.415   0.457   0.460   0.429   0.433   0.434   0.472   0.466   0.443   0.422   0.438   0.451   0.451   0.451   0.450   0.434   0.472   0.457   0.436   0.441   0.455   0.464   0.472   0.469   0.489   0.490   0.482   0.505   0.487   0.455   0.456   0.496   0.485   0.473   0.449   0.475   0.488   0.496   0.482   0.488   0.502   0.518   0.541   0.526   0.538   0.550   0.528   0.509   0.482   0.478   0.507   0.508   0.499   0.467   0.494   0.469   0.477   0.429   0.450   0.476   0.477   0.484   0.472   0.478   0.498   0.484   0.441   0.437   0.444   0.445   0.457   0.422   0.423   0.477   0.462   0.464   0.440   0.425   0.396   0.425   0.399   0.421   0.410   0.404   0.377   0.398   0.411   0.427   0.431   0.446   0.450   0.427   0.450   0.445   0.463   0.464   0.417   0.399   0.410   0.409   0.446   0.452   0.502   0.498   0.495   0.473   0.480   0.460   0.442   0.442   0.409   0.431   0.404   0.394   0.405   0.371   0.362   0.418   0.449   0.412   0.449   0.437   0.464   0.460   0.471   0.476   0.442   0.404   0.411   0.427   0.442   0.458   0.451   0.483   0.484   0.499   0.535   0.513   0.507   0.508   0.507   0.508   0.540   0.539   0.503   0.508   0.515   0.522   0.482   0.481   0.460   0.455   0.413   0.403   0.422
   261.40    0.453   0.447   0.425   0.447   0.474   0.501   0.507   0.478   0.493   0.472   0.471   0.459   0.449   0.419   0.399   0.417   0.404   0.397   0.395   0.390   0.393   0.399   0.382   0.404   0.409   0.427   0.398   0.410   0.402   0.379   0.378   0.413   0.420   0.397   0.387   0.420   0.439   0.431   0.427   0.441   0.468   0.427   0.431   0.439   0.460   0.489   0.479   0.448   0.458   0.445   0.418   0.433   0.416   0.462   0.483   0.473   0.470   0.446   0.475   0.498   0.467   0.444   0.486   0.499   0.504   0.484   0.481   0.481   0.481   0.481   0.477   0.469   0.488   0.504   0.521   0.524   0.515   0.513   0.490   0.511   0.544   0.558   0.538   0.566   0.540   0.532   0.476   0.493   0.489   0.501   0.470   0.471   0.476   0.441   0.450   0.417   0.409   0.419   0.451   0.456   0.469   0.448   0.466   0.504   0.513   0.493   0.464   0.469   0.478   0.457   0.448   0.471   0.461   0.435   0.418   0.425   0.417   0.419   0.416   0.400   0.407   0.410   0.413   0.407   0.418   0.442   0.444   0.470   0.448   0.436   0.448   0.486   0.497   0.473   0.472   0.447   0.402   0.416   0.471   0.505   0.517   0.510   0.459   0.474   0.503   0.487   0.451   0.453   0.439   0.397   0.420   0.390   0.391   0.376   0.409   0.392   0.451   0.462   0.471   0.456   0.477   0.479   0.446   0.437   0.447   0.408   0.424   0.460   0.442   0.455   0.476   0.477   0.468   0.479   0.525   0.531   0.534   0.523   0.503   0.495   0.512   0.497   0.450   0.455   0.470   0.447   0.480   0.471   0.444   0.464   0.453   0.458   0.449
   252.10    0.479   0.519   0.505   0.524   0.498   0.507   0.494   0.522   0.508   0.495   0.466   0.465   0.426   0.392   0.384   0.401   0.389   0.380   0.369   0.372   0.361   0.364   0.386   0.390   0.374   0.364   0.373   0.360   0.378   0.381   0.377   0.379   0.394   0.394   0.405   0.410   0.439   0.446   0.431   0.426   0.436   0.444   0.436   0.465   0.498   0.526   0.495   0.442   0.439   0.439   0.462   0.428   0.393   0.461   0.489   0.489   0.448   0.448   0.461   0.461   0.461   0.480   0.506   0.505   0.516   0.485   0.465   0.472   0.451   0.453   0.449   0.454   0.463   0.535   0.555   0.553   0.547   0.509   0.504   0.572   0.566   0.584   0.540   0.536   0.554   0.537   0.489   0.474   0.490   0.497   0.484   0.481   0.432   0.412   0.412   0.410   0.426   0.450   0.470   0.454   0.425   0.445   0.465   0.457   0.477   0.492   0.502   0.483   0.471   0.457   0.416   0.439   0.447   0.432   0.425   0.433   0.439   0.432   0.404   0.391   0.395   0.383   0.374   0.409   0.401   0.415   0.424   0.451   0.461   0.475   0.439   0.498   0.475   0.507   0.483   0.445   0.421   0.442   0.451   0.502   0.507   0.498   0.458   0.434   0.468   0.493   0.477   0.481   0.466   0.445   0.430   0.397   0.374   0.382   0.414   0.432   0.437   0.468   0.452   0.469   0.488   0.487   0.465   0.415   0.414   0.406   0.427   0.430   0.440   0.471   0.500   0.446   0.457   0.519   0.527   0.532   0.510   0.502   0.518   0.538   0.509   0.499   0.467   0.443   0.454   0.477   0.483   0.478   0.441   0.440   0.449   0.451   0.438
   242.80    0.505   0.510   0.537   0.528   0.489   0.475   0.500   0.485   0.494   0.468   0.431   0.463   0.421   0.382   0.398   0.405   0.398   0.389   0.372   0.352   0.382   0.350   0.372   0.382   0.370   0.366   0.361   0.367   0.360   0.369   0.383   0.363   0.375   0.402   0.392   0.380   0.411   0.415   0.433   0.416   0.446   0.451   0.490   0.477   0.492   0.509   0.508   0.467   0.457   0.432   0.405   0.453   0.434   0.458   0.459   0.478   0.482   0.458   0.476   0.482   0.494   0.487   0.490   0.488   0.497   0.466   0.469   0.474   0.447   0.460   0.452   0.444   0.489   0.528   0.557   0.574   0.542   0.519   0.563   0.548   0.581   0.557   0.551   0.530   0.531   0.533   0.475   0.469   0.457   0.485   0.504   0.481   0.471   0.403   0.428   0.420   0.439   0.431   0.457   0.462   0.484   0.455   0.461   0.467   0.469   0.469   0.473   0.466   0.438   0.457   0.454   0.452   0.444   0.438   0.407   0.423   0.450   0.449   0.420   0.424   0.417   0.411   0.396   0.387   0.411   0.386   0.419   0.453   0.485   0.470   0.508   0.499   0.481   0.481   0.469   0.474   0.462   0.473   0.453   0.501   0.494   0.496   0.489   0.461   0.490   0.498   0.490   0.496   0.472   0.442   0.438   0.422   0.379   0.400   0.382   0.416   0.425   0.457   0.445   0.459   0.458   0.452   0.437   0.415   0.433   0.437   0.441   0.403   0.436   0.474   0.466   0.470   0.471   0.508   0.519   0.503   0.478   0.501   0.514   0.501   0.468   0.467   0.483   0.458   0.429   0.462   0.478   0.478   0.473   0.446   0.410   0.434   0.419
   233.50    0.485   0.499   0.503   0.488   0.482   0.454   0.480   0.483   0.497   0.497   0.484   0.455   0.428   0.423   0.411   0.393   0.403   0.391   0.360   0.363   0.375   0.375   0.352   0.371   0.383   0.396   0.359   0.361   0.357   0.356   0.386   0.360   0.392   0.431   0.404   0.380   0.383   0.423   0.447   0.474   0.452   0.465   0.486   0.456   0.476   0.490   0.483   0.464   0.474   0.441   0.436   0.439   0.447   0.485   0.497   0.449   0.467   0.495   0.471   0.498   0.499   0.518   0.505   0.471   0.474   0.471   0.461   0.484   0.475   0.442   0.443   0.470   0.491   0.492   0.526   0.534   0.525   0.534   0.532   0.545   0.586   0.550   0.555   0.570   0.544   0.535   0.484   0.465   0.504   0.506   0.492   0.488   0.480   0.449   0.454   0.470   0.423   0.433   0.474   0.455   0.496   0.490   0.478   0.493   0.492   0.499   0.457   0.427   0.398   0.410   0.422   0.445   0.483   0.456   0.439   0.419   0.429   0.424   0.442   0.431   0.436   0.447   0.414   0.388   0.385   0.400   0.439   0.461   0.467   0.500   0.501   0.475   0.466   0.465   0.495   0.478   0.470   0.486   0.475   0.505   0.480   0.519   0.514   0.500   0.460   0.502   0.503   0.457   0.469   0.470   0.446   0.445   0.391   0.402   0.407   0.415   0.448   0.467   0.447   0.452   0.439   0.440   0.423   0.428   0.449   0.430   0.442   0.448   0.417   0.455   0.457   0.469   0.477   0.513   0.492   0.468   0.491   0.486   0.483   0.498   0.470   0.466   0.444   0.422   0.446   0.497   0.500   0.489   0.457   0.438   0.401   0.422   0.456
   224.20    0.485   0.474   0.478   0.511   0.454   0.434   0.453   0.486   0.465   0.501   0.494   0.452   0.422   0.429   0.441   0.403   0.383   0.364   0.343   0.352   0.353   0.376   0.387   0.400   0.388   0.409   0.369   0.379   0.360   0.369   0.374   0.389   0.426   0.447   0.407   0.402   0.396   0.424   0.443   0.438   0.459   0.490   0.467   0.468   0.482   0.470   0.432   0.447   0.464   0.469   0.430   0.481   0.483   0.469   0.493   0.473   0.483   0.486   0.505   0.482   0.530   0.531   0.547   0.482   0.470   0.491   0.508   0.547   0.531   0.494   0.464   0.467   0.500   0.486   0.516   0.509   0.516   0.522   0.519   0.544   0.567   0.572   0.557   0.549   0.549   0.526   0.478   0.446   0.489   0.500   0.488   0.480   0.485   0.463   0.495   0.481   0.414   0.437   0.430   0.455   0.455   0.492   0.481   0.527   0.533   0.526   0.493   0.427   0.438   0.406   0.425   0.463   0.448   0.460   0.441   0.415   0.405   0.421   0.418   0.415   0.447   0.446   0.434   0.407   0.415   0.391   0.404   0.442   0.475   0.467   0.476   0.480   0.470   0.465   0.461   0.443   0.486   0.481   0.496   0.513   0.503   0.518   0.526   0.511   0.478   0.497   0.499   0.497   0.474   0.474   0.473   0.470   0.475   0.432   0.411   0.435   0.441   0.436   0.443   0.442   0.404   0.399   0.410   0.423   0.438   0.433   0.473   0.461   0.430   0.441   0.435   0.452   0.454   0.468   0.506   0.490   0.508   0.494   0.472   0.494   0.454   0.438   0.434   0.465   0.467   0.494   0.479   0.469   0.434   0.416   0.409   0.410   0.445
   214.90    0.452   0.435   0.484   0.489   0.471   0.472   0.435   0.484   0.484   0.444   0.455   0.451   0.446   0.437   0.423   0.407   0.369   0.389   0.374   0.388   0.361   0.361   0.376   0.363   0.399   0.424   0.421   0.421   0.382   0.377   0.392   0.423   0.426   0.442   0.374   0.418   0.399   0.448   0.450   0.425   0.463   0.488   0.470   0.430   0.447   0.455   0.444   0.451   0.435   0.466   0.445   0.465   0.480   0.445   0.510   0.522   0.508   0.504   0.512   0.509   0.521   0.518   0.549   0.549   0.540   0.537   0.551   0.571   0.544   0.533   0.525   0.498   0.529   0.507   0.513   0.525   0.554   0.528   0.510   0.536   0.560   0.536   0.528   0.517   0.541   0.523   0.488   0.478   0.507   0.487   0.436   0.462   0.480   0.486   0.482   0.461   0.431   0.451   0.454   0.467   0.494   0.505   0.503   0.538   0.548   0.500   0.489   0.494   0.474   0.419   0.456   0.460   0.482   0.481   0.460   0.424   0.427   0.411   0.418   0.432   0.446   0.445   0.404   0.380   0.395   0.382   0.400   0.424   0.466   0.496   0.487   0.510   0.467   0.461   0.426   0.436   0.502   0.506   0.499   0.459   0.489   0.507   0.536   0.489   0.509   0.505   0.514   0.518   0.477   0.470   0.494   0.473   0.455   0.443   0.432   0.434   0.459   0.422   0.430   0.419   0.396   0.383   0.383   0.394   0.441   0.481   0.513   0.480   0.474   0.472   0.464   0.461   0.464   0.464   0.452   0.469   0.484   0.481   0.483   0.461   0.452   0.418   0.423   0.477   0.470   0.476   0.475   0.466   0.445   0.443   0.408   0.400   0.417
   205.60    0.434   0.455   0.460   0.477   0.500   0.490   0.466   0.487   0.482   0.468   0.460   0.449   0.441   0.418   0.420   0.415   0.416   0.388   0.402   0.423   0.381   0.391   0.390   0.407   0.405   0.413   0.403   0.386   0.381   0.379   0.385   0.399   0.418   0.420   0.405   0.394   0.425   0.413   0.436   0.429   0.437   0.450   0.451   0.410   0.434   0.445   0.466   0.481   0.469   0.435   0.422   0.459   0.461   0.464   0.501   0.503   0.527   0.516   0.519   0.528   0.525   0.557   0.549   0.562   0.544   0.546   0.550   0.548   0.544   0.562   0.501   0.510   0.503   0.509   0.528   0.505   0.530   0.557   0.529   0.554   0.539   0.552   0.540   0.531   0.508   0.486   0.473   0.464   0.493   0.487   0.436   0.483   0.497   0.469   0.468   0.478   0.448   0.449   0.450   0.474   0.515   0.502   0.511   0.511   0.503   0.488   0.498   0.513   0.502   0.487   0.480   0.468   0.514   0.514   0.498   0.423   0.427   0.441   0.418   0.437   0.428   0.431   0.400   0.401   0.430   0.418   0.437   0.439   0.483   0.485   0.469   0.496   0.495   0.490   0.446   0.480   0.501   0.480   0.494   0.463   0.464   0.485   0.506   0.520   0.520   0.523   0.548   0.527   0.489   0.479   0.488   0.477   0.490   0.469   0.471   0.461   0.448   0.413   0.397   0.388   0.405   0.382   0.423   0.456   0.475   0.517   0.532   0.503   0.509   0.497   0.511   0.484   0.467   0.474   0.447   0.445   0.482   0.486   0.493   0.487   0.464   0.416   0.435   0.491   0.430   0.461   0.449   0.440   0.440   0.464   0.427   0.414   0.410
   196.30    0.413   0.441   0.471   0.506   0.496   0.502   0.513   0.517   0.503   0.476   0.483   0.452   0.412   0.420   0.423   0.408   0.407   0.417   0.431   0.403   0.414   0.412   0.407   0.394   0.398   0.410   0.392   0.370   0.378   0.376   0.405   0.415   0.413   0.425   0.398   0.391   0.400   0.393   0.404   0.426   0.470   0.489   0.448   0.417   0.433   0.423   0.471   0.505   0.457   0.467   0.436   0.452   0.460   0.481   0.494   0.523   0.491   0.522   0.542   0.544   0.555   0.553   0.586   0.567   0.565   0.574   0.584   0.561   0.555   0.559   0.529   0.501   0.522   0.555   0.555   0.552   0.548   0.545   0.511   0.564   0.588   0.552   0.536   0.515   0.501   0.506   0.489   0.479   0.501   0.501   0.473   0.470   0.476   0.491   0.455   0.497   0.491   0.421   0.442   0.450   0.503   0.482   0.493   0.525   0.479   0.479   0.512   0.514   0.522   0.522   0.499   0.525   0.542   0.526   0.477   0.447   0.434   0.407   0.397   0.408   0.401   0.420   0.428   0.423   0.467   0.487   0.426   0.433   0.489   0.509   0.488   0.484   0.488   0.490   0.482   0.475   0.497   0.473   0.470   0.490   0.454   0.474   0.487   0.521   0.525   0.519   0.528   0.494   0.532   0.485   0.482   0.523   0.502   0.497   0.456   0.452   0.424   0.397   0.407   0.436   0.424   0.429   0.477   0.510   0.536   0.537   0.507   0.500   0.491   0.527   0.523   0.501   0.501   0.499   0.448   0.454   0.461   0.486   0.476   0.472   0.448   0.445   0.438   0.459   0.438   0.449   0.469   0.483   0.486   0.461   0.421   0.432   0.439
   187.00    0.452   0.434   0.479   0.504   0.532   0.521   0.540   0.528   0.545   0.485   0.471   0.436   0.419   0.425   0.427   0.443   0.429   0.442   0.437   0.412   0.414   0.416   0.391   0.400   0.406   0.376   0.370   0.381   0.376   0.389   0.421   0.415   0.416   0.406   0.407   0.396   0.400   0.387   0.399   0.426   0.439   0.471   0.448   0.460   0.466   0.441   0.485   0.516   0.492   0.474   0.443   0.456   0.465   0.475   0.479   0.502   0.478   0.486   0.529   0.538   0.557   0.578   0.546   0.577   0.566   0.594   0.556   0.562   0.561   0.558   0.534   0.567   0.570   0.580   0.590   0.568   0.520   0.563   0.548   0.560   0.551   0.568   0.585   0.570   0.534   0.520   0.506   0.486   0.526   0.483   0.478   0.461   0.456   0.483   0.480   0.511   0.475   0.441   0.445   0.451   0.475   0.502   0.487   0.497   0.472   0.473   0.442   0.473   0.520   0.538   0.533   0.505   0.521   0.517   0.490   0.444   0.436   0.395   0.393   0.389   0.406   0.410   0.435   0.434   0.469   0.494   0.468   0.437   0.462   0.490   0.492   0.495   0.460   0.487   0.475   0.478   0.472   0.442   0.470   0.465   0.456   0.462   0.466   0.498   0.496   0.465   0.478   0.489   0.510   0.507   0.493   0.513   0.524   0.490   0.477   0.440   0.424   0.416   0.415   0.412   0.451   0.479   0.510   0.502   0.497   0.499   0.508   0.515   0.511   0.494   0.522   0.531   0.531   0.469   0.482   0.469   0.442   0.465   0.446   0.445   0.441   0.431   0.439   0.459   0.425   0.441   0.467   0.464   0.472   0.462   0.428   0.456   0.444
   177.70    0.445   0.454   0.470   0.511   0.496   0.497   0.504   0.526   0.496   0.499   0.471   0.448   0.419   0.432   0.439   0.432   0.450   0.417   0.422   0.387   0.417   0.452   0.434   0.432   0.400   0.403   0.406   0.391   0.420   0.389   0.414   0.402   0.400   0.419   0.401   0.411   0.416   0.378   0.388   0.445   0.452   0.467   0.463   0.461   0.500   0.495   0.505   0.486   0.470   0.445   0.445   0.455   0.457   0.443   0.489   0.473   0.454   0.463   0.484   0.522   0.547   0.547   0.551   0.543   0.564   0.578   0.572   0.566   0.563   0.571   0.594   0.582   0.607   0.581   0.601   0.559   0.576   0.530   0.564   0.573   0.593   0.561   0.566   0.567   0.565   0.546   0.532   0.516   0.531   0.542   0.517   0.465   0.452   0.484   0.481   0.460   0.487   0.446   0.427   0.432   0.465   0.475   0.470   0.499   0.472   0.442   0.451   0.492   0.503   0.499   0.517   0.547   0.513   0.534   0.500   0.467   0.436   0.413   0.387   0.389   0.421   0.431   0.437   0.433   0.484   0.460   0.470   0.462   0.475   0.455   0.467   0.471   0.449   0.480   0.480   0.462   0.465   0.429   0.466   0.459   0.468   0.452   0.468   0.469   0.449   0.464   0.464   0.475   0.501   0.519   0.513   0.501   0.507   0.494   0.460   0.437   0.448   0.430   0.430   0.428   0.460   0.469   0.497   0.523   0.511   0.489   0.521   0.487   0.476   0.496   0.485   0.492   0.505   0.481   0.462   0.448   0.409   0.404   0.453   0.453   0.438   0.470   0.435   0.421   0.449   0.449   0.450   0.442   0.434   0.444   0.449   0.461   0.449
   168.40    0.407   0.437   0.465   0.487   0.501   0.502   0.500   0.496   0.490   0.460   0.470   0.441   0.421   0.403   0.433   0.412   0.432   0.395   0.399   0.409   0.420   0.442   0.477   0.434   0.397   0.421   0.425   0.413   0.427   0.399   0.412   0.408   0.407   0.432   0.428   0.434   0.399   0.396   0.420   0.449   0.460   0.496   0.451   0.474   0.483   0.517   0.517   0.514   0.486   0.473   0.462   0.441   0.440   0.468   0.475   0.514   0.502   0.502   0.471   0.497   0.513   0.524   0.539   0.532   0.514   0.534   0.592   0.589   0.582   0.601   0.612   0.603   0.582   0.593   0.592   0.552   0.546   0.534   0.563   0.567   0.573   0.564   0.523   0.529   0.498   0.547   0.562   0.512   0.541   0.527   0.487   0.469   0.502   0.472   0.470   0.457   0.496   0.445   0.450   0.460   0.429   0.465   0.472   0.505   0.475   0.436   0.478   0.494   0.504   0.472   0.487   0.522   0.481   0.482   0.489   0.465   0.433   0.420   0.388   0.391   0.431   0.442   0.407   0.420   0.450   0.456   0.481   0.465   0.475   0.487   0.478   0.472   0.442   0.467   0.486   0.461   0.476   0.436   0.458   0.485   0.485   0.469   0.472   0.444   0.457   0.504   0.469   0.462   0.495   0.507   0.470   0.470   0.472   0.453   0.446   0.446   0.470   0.448   0.454   0.457   0.462   0.470   0.478   0.491   0.485   0.480   0.492   0.487   0.504   0.514   0.489   0.457   0.478   0.450   0.427   0.422   0.418   0.431   0.473   0.449   0.451   0.446   0.478   0.441   0.427   0.422   0.407   0.443   0.451   0.423   0.423   0.461   0.469
   159.10    0.432   0.446   0.484   0.470   0.482   0.513   0.479   0.472   0.449   0.442   0.425   0.426   0.415   0.417   0.410   0.388   0.401   0.396   0.396   0.420   0.400   0.442   0.445   0.446   0.392   0.403   0.395   0.393   0.394   0.402   0.388   0.419   0.392   0.449   0.453   0.425   0.363   0.427   0.424   0.422   0.482   0.460   0.466   0.473   0.469   0.490   0.474   0.481   0.479   0.502   0.479   0.476   0.447   0.457   0.439   0.478   0.515   0.478   0.498   0.510   0.504   0.511   0.511   0.523   0.521   0.525   0.555   0.584   0.578   0.587   0.580   0.580   0.574   0.583   0.562   0.573   0.571   0.572   0.578   0.572   0.572   0.545   0.480   0.507   0.488   0.487   0.511   0.512   0.510   0.508   0.488   0.505   0.502   0.506   0.472   0.450   0.477   0.451   0.463   0.457   0.458   0.475   0.457   0.470   0.465   0.484   0.486   0.529   0.508   0.479   0.471   0.500   0.489   0.481   0.485   0.454   0.458   0.426   0.398   0.390   0.433   0.454   0.419   0.392   0.410   0.417   0.460   0.467   0.473   0.468   0.461   0.449   0.466   0.511   0.489   0.480   0.465   0.466   0.476   0.463   0.510   0.521   0.469   0.467   0.473   0.488   0.479   0.465   0.494   0.492   0.498   0.483   0.497   0.466   0.443   0.455   0.453   0.415   0.433   0.437   0.442   0.456   0.454   0.480   0.488   0.508   0.482   0.484   0.491   0.500   0.486   0.492   0.474   0.454   0.438   0.435   0.432   0.458   0.470   0.452   0.439   0.468   0.502   0.471   0.441   0.433   0.408   0.418   0.431   0.436   0.414   0.431   0.473
   149.80    0.430   0.465   0.489   0.485   0.501   0.466   0.487   0.447   0.448   0.452   0.412   0.421   0.415   0.421   0.414   0.396   0.400   0.394   0.402   0.400   0.397   0.433   0.451   0.421   0.416   0.407   0.394   0.395   0.375   0.401   0.424   0.421   0.455   0.455   0.431   0.419   0.408   0.415   0.442   0.454   0.457   0.454   0.481   0.496   0.515   0.508   0.496   0.521   0.565   0.539   0.502   0.491   0.475   0.483   0.443   0.492   0.538   0.511   0.492   0.485   0.515   0.523   0.513   0.471   0.488   0.517   0.545   0.576   0.586   0.563   0.613   0.585   0.564   0.557   0.549   0.591   0.617   0.576   0.560   0.544   0.562   0.535   0.505   0.518   0.472   0.456   0.463   0.475   0.505   0.476   0.458   0.483   0.518   0.530   0.483   0.443   0.468   0.427   0.449   0.444   0.463   0.474   0.464   0.467   0.475   0.493   0.521   0.524   0.483   0.465   0.459   0.463   0.472   0.467   0.481   0.468   0.445   0.417   0.397   0.416   0.433   0.413   0.428   0.426   0.436   0.420   0.444   0.440   0.486   0.475   0.458   0.473   0.499   0.503   0.501   0.476   0.490   0.482   0.521   0.499   0.521   0.470   0.477   0.488   0.489   0.477   0.472   0.479   0.502   0.468   0.496   0.512   0.477   0.476   0.459   0.457   0.439   0.412   0.431   0.442   0.466   0.472   0.479   0.526   0.511   0.509   0.522   0.478   0.490   0.487   0.493   0.491   0.454   0.456   0.457   0.459   0.445   0.470   0.492   0.475   0.442   0.463   0.475   0.456   0.438   0.461   0.429   0.427   0.431   0.440   0.461   0.449   0.451
   140.50    0.450   0.452   0.502   0.460   0.483   0.497   0.460   0.447   0.458   0.458   0.396   0.414   0.393   0.436   0.430   0.424   0.393   0.434   0.431   0.430   0.437   0.450   0.432   0.404   0.424   0.437   0.409   0.387   0.394   0.396   0.428   0.404   0.442   0.451   0.401   0.385   0.431   0.444   0.466   0.494   0.500   0.476   0.474   0.490   0.501   0.499   0.522   0.520   0.530   0.531   0.519   0.502   0.472   0.459   0.446   0.463   0.494   0.521   0.480   0.488   0.541   0.528   0.549   0.516   0.493   0.501   0.522   0.543   0.540   0.557   0.579   0.597   0.597   0.573   0.584   0.598   0.599   0.546   0.545   0.543   0.548   0.569   0.545   0.549   0.495   0.458   0.459   0.492   0.471   0.500   0.481   0.446   0.494   0.482   0.505   0.491   0.435   0.429   0.438   0.434   0.448   0.461   0.481   0.474   0.483   0.513   0.525   0.497   0.520   0.526   0.477   0.462   0.466   0.467   0.488   0.455   0.447   0.399   0.386   0.381   0.383   0.400   0.431   0.426   0.401   0.440   0.418   0.476   0.466   0.493   0.497   0.499   0.524   0.492   0.512   0.498   0.498   0.513   0.552   0.524   0.516   0.461   0.471   0.459   0.488   0.468   0.458   0.453   0.472   0.464   0.509   0.507   0.525   0.514   0.468   0.471   0.443   0.442   0.431   0.462   0.461   0.471   0.469   0.491   0.512   0.532   0.517   0.474   0.491   0.471   0.481   0.457   0.467   0.424   0.451   0.463   0.460   0.488   0.495   0.479   0.463   0.469   0.470   0.497   0.488   0.453   0.447   0.447   0.453   0.434   0.487   0.477   0.447
   131.20    0.483   0.474   0.482   0.482   0.473   0.472   0.468   0.468   0.475   0.467   0.401   0.421   0.387   0.415   0.448   0.470   0.434   0.460   0.471   0.465   0.472   0.478   0.464   0.432   0.420   0.415   0.385   0.372   0.397   0.391   0.421   0.413   0.430   0.442   0.426   0.405   0.441   0.455   0.469   0.493   0.497   0.493   0.515   0.510   0.547   0.508   0.526   0.529   0.517   0.519   0.487   0.477   0.467   0.452   0.414   0.449   0.473   0.521   0.512   0.490   0.545   0.481   0.498   0.521   0.537   0.532   0.583   0.542   0.546   0.552   0.546   0.537   0.571   0.569   0.561   0.574   0.559   0.547   0.537   0.566   0.558   0.555   0.528   0.527   0.511   0.478   0.467   0.499   0.474   0.473   0.483   0.464   0.516   0.516   0.479   0.462   0.445   0.422   0.405   0.432   0.464   0.447   0.491   0.511   0.510   0.501   0.516   0.518   0.487   0.512   0.504   0.481   0.460   0.437   0.453   0.470   0.433   0.424   0.410   0.364   0.396   0.387   0.382   0.411   0.410   0.415   0.434   0.442   0.491   0.494   0.503   0.495   0.512   0.491   0.482   0.502   0.505   0.505   0.543   0.539   0.537   0.488   0.458   0.476   0.497   0.509   0.462   0.449   0.486   0.489   0.506   0.486   0.493   0.495   0.458   0.469   0.445   0.443   0.440   0.447   0.443   0.446   0.463   0.447   0.465   0.489   0.499   0.489   0.502   0.501   0.489   0.472   0.479   0.450   0.462   0.429   0.470   0.483   0.501   0.496   0.452   0.476   0.470   0.487   0.463   0.417   0.438   0.424   0.457   0.453   0.452   0.432   0.459
   121.90    0.449   0.471   0.467   0.502   0.471   0.482   0.483   0.492   0.450   0.457   0.425   0.421   0.431   0.403   0.411   0.436   0.467   0.486   0.493   0.485   0.521   0.527   0.477   0.454   0.408   0.396   0.400   0.381   0.393   0.409   0.379   0.397   0.412   0.407   0.424   0.453   0.469   0.486   0.489   0.471   0.525   0.521   0.563   0.527   0.552   0.554   0.558   0.573   0.524   0.542   0.509   0.522   0.522   0.467   0.472   0.485   0.498   0.504   0.471   0.503   0.507   0.486   0.485   0.482   0.540   0.572   0.582   0.587   0.558   0.549   0.525   0.512   0.536   0.587   0.566   0.565   0.520   0.547   0.535   0.553   0.571   0.534   0.550   0.557   0.521   0.523   0.480   0.491   0.475   0.460   0.444   0.466   0.490   0.495   0.473   0.470   0.451   0.409   0.408   0.435   0.430   0.445   0.474   0.495   0.486   0.518   0.510   0.467   0.479   0.511   0.472   0.421   0.439   0.412   0.457   0.472   0.429   0.415   0.389   0.380   0.373   0.399   0.369   0.371   0.397   0.414   0.433   0.416   0.467   0.480   0.478   0.485   0.477   0.503   0.494   0.480   0.538   0.519   0.501   0.500   0.510   0.522   0.490   0.532   0.523   0.477   0.457   0.460   0.487   0.508   0.511   0.449   0.457   0.451   0.454   0.470   0.463   0.438   0.434   0.431   0.429   0.455   0.438   0.454   0.444   0.463   0.455   0.460   0.487   0.481   0.495   0.503   0.487   0.476   0.445   0.445   0.470   0.496   0.490   0.481   0.471   0.469   0.478   0.482   0.458   0.456   0.455   0.415   0.424   0.442   0.446   0.446   0.465
   112.60    0.458   0.482   0.485   0.485   0.487   0.509   0.482   0.505   0.484   0.488   0.434   0.433   0.439   0.398   0.431   0.442   0.470   0.489   0.492   0.531   0.508   0.507   0.505   0.444   0.409   0.391   0.416   0.398   0.401   0.404   0.401   0.413   0.426   0.433   0.450   0.455   0.456   0.450   0.494   0.497   0.515   0.522   0.540   0.541   0.541   0.558   0.565   0.587   0.563   0.516   0.513   0.545   0.534   0.494   0.495   0.500   0.495   0.435   0.473   0.483   0.510   0.513   0.522   0.498   0.514   0.549   0.569   0.552   0.525   0.523   0.498   0.516   0.535   0.549   0.553   0.559   0.554   0.582   0.567   0.575   0.559   0.580   0.598   0.592   0.535   0.505   0.487   0.477   0.481   0.485   0.439   0.458   0.472   0.509   0.504   0.500   0.446   0.422   0.432   0.447   0.419   0.427   0.450   0.446   0.453   0.480   0.478   0.468   0.460   0.472   0.472   0.423   0.451   0.428   0.439   0.425   0.433   0.428   0.421   0.406   0.376   0.390   0.390   0.370   0.387   0.419   0.430   0.429   0.458   0.481   0.511   0.472   0.493   0.491   0.511   0.514   0.513   0.474   0.513   0.497   0.525   0.509   0.499   0.493   0.485   0.505   0.454   0.484   0.468   0.487   0.476   0.474   0.465   0.436   0.444   0.442   0.456   0.454   0.424   0.417   0.450   0.433   0.458   0.442   0.463   0.484   0.461   0.459   0.465   0.476   0.471   0.457   0.455   0.455   0.451   0.467   0.465   0.472   0.477   0.483   0.476   0.485   0.478   0.483   0.441   0.440   0.431   0.428   0.384   0.419   0.437   0.423   0.469
   103.30    0.449   0.466   0.475   0.455   0.496   0.540   0.492   0.501   0.474   0.477   0.469   0.452   0.462   0.439   0.439   0.451   0.488   0.512   0.492   0.526   0.511   0.486   0.480   0.465   0.430   0.432   0.403   0.420   0.398   0.418   0.423   0.418   0.417   0.448   0.478   0.474   0.457   0.478   0.512   0.522   0.555   0.562   0.556   0.525   0.509   0.514   0.539   0.572   0.562   0.552   0.541   0.565   0.552   0.551   0.519   0.481   0.460   0.472   0.499   0.535   0.536   0.529   0.535   0.542   0.498   0.515   0.530   0.490   0.514   0.516   0.523   0.511   0.538   0.520   0.553   0.546   0.547   0.569   0.563   0.580   0.573   0.561   0.590   0.567   0.558   0.509   0.484   0.484   0.498   0.483   0.445   0.488   0.484   0.476   0.467   0.472   0.456   0.406   0.407   0.436   0.436   0.430   0.435   0.406   0.423   0.449   0.462   0.473   0.466   0.464   0.468   0.485   0.459   0.442   0.426   0.439   0.424   0.419   0.440   0.433   0.396   0.389   0.371   0.387   0.387   0.409   0.441   0.458   0.493   0.512   0.514   0.497   0.473   0.480   0.485   0.480   0.489   0.507   0.504   0.515   0.523   0.505   0.499   0.498   0.516   0.493   0.486   0.468   0.481   0.484   0.472   0.475   0.509   0.474   0.435   0.425   0.432   0.431   0.431   0.440   0.441   0.458   0.457   0.465   0.489   0.482   0.471   0.433   0.439   0.444   0.443   0.426   0.430   0.446   0.479   0.425   0.436   0.437   0.466   0.481   0.485   0.491   0.481   0.481   0.441   0.431   0.408   0.422   0.423   0.421   0.440   0.431   0.447
    94.00    0.466   0.453   0.449   0.477   0.519   0.510   0.515   0.516   0.491   0.484   0.490   0.455   0.451   0.456   0.450   0.472   0.508   0.530   0.495   0.539   0.503   0.469   0.469   0.454   0.413   0.441   0.424   0.430   0.423   0.440   0.416   0.391   0.405   0.428   0.448   0.456   0.466   0.476   0.522   0.570   0.554   0.572   0.593   0.535   0.530   0.538   0.519   0.556   0.546   0.565   0.563   0.569   0.567   0.579   0.547   0.526   0.526   0.488   0.495   0.512   0.520   0.526   0.521   0.531   0.523   0.518   0.481   0.470   0.462   0.499   0.534   0.520   0.505   0.510   0.530   0.563   0.574   0.565   0.595   0.572   0.548   0.553   0.551   0.554   0.492   0.488   0.480   0.453   0.488   0.452   0.461   0.489   0.468   0.491   0.466   0.447   0.423   0.419   0.382   0.415   0.443   0.462   0.435   0.458   0.426   0.468   0.455   0.438   0.467   0.469   0.471   0.464   0.418   0.437   0.441   0.430   0.425   0.428   0.413   0.432   0.429   0.387   0.388   0.398   0.414   0.428   0.473   0.437   0.459   0.503   0.509   0.462   0.444   0.470   0.472   0.523   0.526   0.531   0.530   0.522   0.519   0.513   0.487   0.479   0.490   0.488   0.493   0.488   0.492   0.466   0.466   0.465   0.495   0.469   0.472   0.431   0.442   0.439   0.442   0.453   0.444   0.482   0.462   0.454   0.484   0.471   0.474   0.442   0.440   0.446   0.438   0.420   0.423   0.439   0.480   0.438   0.436   0.436   0.426   0.463   0.471   0.500   0.456   0.458   0.424   0.447   0.456   0.446   0.455   0.437   0.433   0.423   0.455
    84.70    0.440   0.473   0.481   0.452   0.476   0.466   0.484   0.475   0.472   0.471   0.463   0.460   0.421   0.452   0.470   0.456   0.504   0.509   0.532   0.529   0.459   0.469   0.494   0.468   0.413   0.431   0.454   0.451   0.434   0.450   0.425   0.397   0.390   0.396   0.443   0.473   0.510   0.534   0.539   0.553   0.590   0.597   0.570   0.590   0.576   0.556   0.548   0.539   0.542   0.571   0.582   0.565   0.570   0.590   0.586   0.559   0.502   0.482   0.472   0.491   0.491   0.506   0.524   0.534   0.544   0.510   0.514   0.478   0.491   0.501   0.520   0.509   0.520   0.504   0.509   0.497   0.520   0.568   0.569   0.548   0.526   0.515   0.492   0.517   0.520   0.510   0.472   0.472   0.474   0.438   0.458   0.458   0.447   0.484   0.505   0.462   0.424   0.422   0.447   0.417   0.447   0.468   0.470   0.429   0.457   0.457   0.422   0.446   0.429   0.424   0.443   0.447   0.441   0.439   0.460   0.450   0.459   0.432   0.439   0.448   0.417   0.412   0.427   0.431   0.458   0.444   0.425   0.428   0.467   0.501   0.496   0.471   0.460   0.495   0.524   0.538   0.527   0.521   0.512   0.510   0.533   0.502   0.481   0.474   0.493   0.481   0.468   0.451   0.458   0.436   0.470   0.466   0.480   0.443   0.464   0.433   0.407   0.427   0.422   0.424   0.455   0.485   0.455   0.481   0.454   0.471   0.491   0.466   0.447   0.455   0.430   0.422   0.422   0.458   0.446   0.443   0.449   0.451   0.466   0.440   0.446   0.470   0.427   0.443   0.418   0.439   0.435   0.487   0.477   0.517   0.496   0.453   0.437
    75.40    0.454   0.487   0.441   0.447   0.474   0.478   0.485   0.459   0.480   0.447   0.444   0.449   0.434   0.454   0.453   0.458   0.488   0.506   0.527   0.487   0.498   0.475   0.466   0.435   0.452   0.450   0.468   0.453   0.451   0.469   0.446   0.416   0.388   0.394   0.496   0.492   0.513   0.535   0.559   0.563   0.599   0.628   0.631   0.635   0.574   0.577   0.554   0.509   0.542   0.546   0.545   0.530   0.549   0.529   0.558   0.548   0.503   0.494   0.477   0.483   0.505   0.519   0.547   0.541   0.515   0.550   0.526   0.493   0.471   0.458   0.528   0.483   0.494   0.501   0.471   0.486   0.525   0.546   0.559   0.552   0.546   0.506   0.506   0.494   0.490   0.493   0.478   0.450   0.433   0.466   0.444   0.434   0.426   0.464   0.479   0.481   0.460   0.415   0.426   0.438   0.442   0.441   0.448   0.443   0.421   0.436   0.449   0.444   0.452   0.458   0.423   0.434   0.448   0.430   0.441   0.439   0.443   0.465   0.432   0.435   0.434   0.434   0.441   0.457   0.435   0.420   0.428   0.444   0.413   0.471   0.475   0.487   0.439   0.471   0.504   0.545   0.536   0.529   0.503   0.488   0.482   0.482   0.478   0.471   0.446   0.462   0.438   0.409   0.444   0.463   0.453   0.464   0.438   0.453   0.424   0.411   0.420   0.401   0.413   0.410   0.443   0.474   0.447   0.466   0.472   0.479   0.473   0.487   0.472   0.461   0.470   0.453   0.452   0.457   0.462   0.449   0.456   0.438   0.461   0.423   0.425   0.449   0.437   0.429   0.466   0.479   0.475   0.451   0.477   0.502   0.504   0.488   0.449
    66.10    0.447   0.453   0.424   0.434   0.434   0.459   0.433   0.457   0.447   0.452   0.465   0.467   0.467   0.460   0.474   0.496   0.472   0.467   0.431   0.491   0.468   0.453   0.457   0.437   0.483   0.452   0.457   0.462   0.470   0.487   0.449   0.439   0.434   0.481   0.520   0.564   0.559   0.555   0.578   0.560   0.577   0.622   0.608   0.597   0.598   0.564   0.532   0.522   0.521   0.541   0.527   0.567   0.548   0.541   0.553   0.522   0.497   0.501   0.466   0.466   0.471   0.454   0.518   0.523   0.503   0.501   0.483   0.508   0.471   0.493   0.495   0.500   0.477   0.464   0.487   0.480   0.532   0.529   0.551   0.513   0.523   0.527   0.512   0.478   0.482   0.486   0.496   0.431   0.450   0.460   0.444   0.429   0.415   0.425   0.490   0.473   0.470   0.439   0.426   0.433   0.420   0.408   0.429   0.431   0.445   0.457   0.444   0.434   0.447   0.437   0.438   0.425   0.431   0.439   0.426   0.434   0.433   0.408   0.438   0.457   0.437   0.438   0.427   0.446   0.424   0.402   0.442   0.422   0.450   0.475   0.468   0.479   0.485   0.500   0.442   0.482   0.518   0.540   0.525   0.483   0.464   0.432   0.442   0.460   0.454   0.431   0.463   0.429   0.421   0.443   0.443   0.443   0.426   0.456   0.415   0.389   0.384   0.402   0.399   0.415   0.406   0.442   0.458   0.458   0.474   0.497   0.447   0.452   0.472   0.467   0.453   0.431   0.457   0.442   0.443   0.437   0.446   0.433   0.469   0.461   0.442   0.449   0.429   0.437   0.477   0.500   0.499   0.499   0.492   0.490   0.488   0.483   0.488
    56.80    0.406   0.440   0.430   0.445   0.412   0.427   0.442   0.463   0.449   0.447   0.470   0.467   0.464   0.464   0.461   0.481   0.453   0.461   0.443   0.451   0.451   0.439   0.441   0.449   0.446   0.448   0.468   0.462   0.461   0.447   0.476   0.493   0.502   0.497   0.576   0.559   0.567   0.562   0.577   0.560   0.573   0.592   0.591   0.597   0.579   0.571   0.550   0.499   0.499   0.503   0.556   0.556   0.556   0.537   0.521   0.532   0.533   0.526   0.516   0.476   0.469   0.477   0.463   0.504   0.514   0.500   0.443   0.472   0.492   0.479   0.509   0.511   0.491   0.493   0.501   0.535   0.541   0.562   0.543   0.507   0.535   0.493   0.477   0.482   0.465   0.456   0.460   0.426   0.450   0.450   0.440   0.443   0.423   0.448   0.433   0.422   0.424   0.432   0.421   0.410   0.405   0.400   0.421   0.433   0.465   0.457   0.422   0.443   0.455   0.437   0.429   0.430   0.468   0.476   0.440   0.426   0.405   0.376   0.414   0.424   0.435   0.450   0.434   0.468   0.439   0.423   0.432   0.427   0.410   0.448   0.477   0.445   0.484   0.490   0.483   0.477   0.499   0.506   0.514   0.442   0.478   0.447   0.466   0.464   0.441   0.426   0.461   0.429   0.415   0.417   0.415   0.443   0.444   0.410   0.419   0.381   0.388   0.401   0.400   0.409   0.406   0.444   0.477   0.476   0.471   0.468   0.461   0.468   0.480   0.461   0.447   0.455   0.426   0.432   0.456   0.431   0.457   0.426   0.463   0.468   0.454   0.441   0.440   0.438   0.460   0.449   0.468   0.465   0.485   0.484   0.473   0.443   0.456
    47.50    0.378   0.425   0.433   0.406   0.422   0.422   0.423   0.441   0.429   0.452   0.454   0.453   0.474   0.472   0.514   0.444   0.439   0.431   0.422   0.427   0.442   0.422   0.451   0.464   0.441   0.432   0.443   0.478   0.435   0.469   0.467   0.504   0.512   0.539   0.554   0.546   0.584   0.557   0.576   0.584   0.579   0.610   0.579   0.580   0.538   0.532   0.531   0.539   0.514   0.502   0.544   0.567   0.531   0.501   0.510   0.492   0.503   0.528   0.524   0.502   0.513   0.498   0.459   0.464   0.491   0.511   0.480   0.481   0.501   0.476   0.518   0.520   0.507   0.485   0.515   0.519   0.531   0.525   0.483   0.511   0.518   0.486   0.487   0.467   0.478   0.463   0.472   0.481   0.433   0.482   0.476   0.465   0.462   0.452   0.448   0.417   0.406   0.424   0.438   0.436   0.452   0.426   0.422   0.464   0.469   0.455   0.439   0.434   0.461   0.455   0.443   0.469   0.447   0.443   0.434   0.430   0.420   0.416   0.403   0.418   0.464   0.452   0.442   0.433   0.450   0.463   0.455   0.464   0.459   0.452   0.470   0.469   0.481   0.497   0.498   0.489   0.503   0.486   0.496   0.469   0.434   0.449   0.467   0.469   0.424   0.436   0.417   0.379   0.391   0.400   0.396   0.417   0.415   0.389   0.403   0.402   0.415   0.416   0.408   0.416   0.401   0.414   0.429   0.474   0.463   0.455   0.461   0.470   0.501   0.444   0.452   0.464   0.444   0.439   0.450   0.436   0.422   0.439   0.477   0.471   0.455   0.447   0.412   0.422   0.448   0.449   0.456   0.446   0.487   0.474   0.477   0.462   0.469
    38.20    0.406   0.406   0.432   0.455   0.439   0.422   0.442   0.435   0.428   0.435   0.472   0.424   0.473   0.475   0.477   0.468   0.458   0.430   0.428   0.450   0.452   0.480   0.448   0.449   0.449   0.456   0.449   0.470   0.455   0.468   0.477   0.524   0.540   0.548   0.561   0.576   0.603   0.596   0.585   0.560   0.586   0.578   0.581   0.561   0.527   0.540   0.531   0.532   0.562   0.530   0.529   0.535   0.570   0.550   0.515   0.514   0.521   0.500   0.542   0.531   0.550   0.502   0.487   0.487   0.472   0.496   0.499   0.509   0.509   0.512   0.522   0.500   0.523   0.500   0.493   0.509   0.502   0.501   0.478   0.480   0.476   0.509   0.514   0.501   0.496   0.486   0.462   0.472   0.462   0.454   0.492   0.477   0.465   0.464   0.466   0.448   0.386   0.409   0.431   0.436   0.459   0.447   0.450   0.463   0.481   0.453   0.454   0.443   0.467   0.450   0.453   0.435   0.432   0.421   0.440   0.423   0.401   0.432   0.436   0.421   0.438   0.436   0.435   0.446   0.431   0.453   0.473   0.459   0.459   0.445   0.467   0.473   0.488   0.483   0.493   0.494   0.526   0.489   0.468   0.453   0.450   0.435   0.443   0.454   0.409   0.417   0.417   0.384   0.371   0.396   0.404   0.440   0.437   0.409   0.395   0.401   0.417   0.448   0.414   0.419   0.424   0.408   0.441   0.457   0.500   0.466   0.475   0.489   0.454   0.454   0.473   0.461   0.475   0.459   0.474   0.459   0.462   0.443   0.484   0.463   0.435   0.418   0.418   0.406   0.429   0.469   0.473   0.471   0.462   0.446   0.448   0.458   0.461
    28.90    0.414   0.404   0.395   0.443   0.465   0.471   0.430   0.430   0.417   0.419   0.456   0.438   0.439   0.464   0.437   0.447   0.467   0.457   0.469   0.506   0.490   0.453   0.448   0.457   0.466   0.439   0.451   0.472   0.487   0.484   0.489   0.518   0.523   0.551   0.568   0.577   0.582   0.606   0.577   0.542   0.560   0.530   0.542   0.511   0.511   0.522   0.518   0.543   0.545   0.569   0.569   0.579   0.566   0.526   0.531   0.509   0.514   0.497   0.500   0.537   0.555   0.540   0.499   0.508   0.485   0.507   0.519   0.531   0.549   0.534   0.493   0.523   0.479   0.490   0.495   0.498   0.492   0.479   0.508   0.482   0.457   0.478   0.520   0.522   0.521   0.515   0.481   0.465   0.479   0.447   0.475   0.487   0.474   0.487   0.464   0.465   0.449   0.464   0.455   0.434   0.451   0.456   0.461   0.443   0.498   0.430   0.436   0.447   0.465   0.430   0.450   0.429   0.434   0.442   0.455   0.433   0.412   0.426   0.437   0.461   0.468   0.465   0.481   0.458   0.433   0.429   0.462   0.479   0.495   0.457   0.483   0.497   0.485   0.461   0.459   0.493   0.492   0.488   0.483   0.458   0.447   0.458   0.441   0.421   0.412   0.409   0.417   0.390   0.387   0.412   0.423   0.448   0.449   0.396   0.399   0.422   0.418   0.417   0.414   0.452   0.431   0.428   0.422   0.449   0.453   0.472   0.463   0.474   0.453   0.443   0.427   0.474   0.416   0.447   0.450   0.468   0.456   0.455   0.466   0.445   0.453   0.408   0.409   0.416   0.455   0.458   0.469   0.453   0.456   0.465   0.457   0.436   0.449
    19.60    0.427   0.436   0.472   0.472   0.473   0.444   0.467   0.430   0.402   0.407   0.418   0.411   0.445   0.429   0.440   0.435   0.468   0.475   0.491   0.471   0.487   0.481   0.456   0.443   0.441   0.455   0.459   0.502   0.482   0.479   0.518   0.525   0.596   0.562   0.548   0.541   0.564   0.576   0.554   0.542   0.540   0.528   0.532   0.515   0.521   0.528   0.530   0.533   0.549   0.553   0.565   0.564   0.535   0.516   0.540   0.525   0.487   0.496   0.511   0.526   0.549   0.523   0.525   0.488   0.484   0.511   0.513   0.530   0.516   0.503   0.532   0.538   0.541   0.534   0.533   0.531   0.526   0.510   0.491   0.469   0.460   0.509   0.540   0.529   0.522   0.515   0.512   0.493   0.474   0.460   0.489   0.464   0.514   0.520   0.478   0.497   0.497   0.494   0.505   0.488   0.470   0.443   0.431   0.453   0.482   0.450   0.435   0.435   0.462   0.424   0.442   0.452   0.428   0.432   0.454   0.446   0.467   0.467   0.442   0.438   0.471   0.453   0.450   0.477   0.481   0.470   0.470   0.474   0.480   0.482   0.492   0.493   0.466   0.447   0.462   0.489   0.481   0.470   0.456   0.450   0.442   0.443   0.402   0.410   0.422   0.404   0.417   0.408   0.418   0.416   0.429   0.435   0.433   0.398   0.418   0.418   0.426   0.449   0.446   0.463   0.459   0.467   0.442   0.451   0.473   0.460   0.457   0.452   0.455   0.436   0.405   0.432   0.450   0.449   0.482   0.469   0.470   0.431   0.435   0.422   0.383   0.407   0.431   0.433   0.429   0.442   0.466   0.424   0.436   0.449   0.459   0.470   0.464
    10.30    0.447   0.459   0.461   0.443   0.460   0.477   0.466   0.473   0.432   0.424   0.437   0.436   0.430   0.449   0.433   0.452   0.481   0.515   0.514   0.503   0.499   0.463   0.470   0.468   0.480   0.469   0.502   0.509   0.481   0.503   0.499   0.562   0.614   0.609   0.588   0.553   0.559   0.531   0.541   0.560   0.548   0.570   0.525   0.519   0.497   0.525   0.517   0.525   0.524   0.537   0.565   0.561   0.542   0.510   0.530   0.517   0.467   0.472   0.490   0.499   0.510   0.519   0.527   0.499   0.497   0.508   0.517   0.531   0.536   0.492   0.522   0.519   0.568   0.545   0.533   0.537   0.543   0.523   0.496   0.502   0.471   0.504   0.535   0.564   0.531   0.518   0.506   0.495   0.491   0.491   0.494   0.486   0.498   0.502   0.486   0.504   0.518   0.508   0.489   0.514   0.460   0.444   0.471   0.454   0.428   0.426   0.445   0.440   0.453   0.461   0.451   0.457   0.440   0.459   0.470   0.463   0.467   0.439   0.436   0.460   0.451   0.440   0.454   0.452   0.448   0.465   0.468   0.479   0.486   0.488   0.508   0.479   0.490   0.471   0.464   0.489   0.498   0.473   0.476   0.446   0.420   0.420   0.369   0.389   0.411   0.411   0.394   0.399   0.408   0.440   0.464   0.472   0.463   0.462   0.469   0.431   0.456   0.464   0.467   0.434   0.493   0.495   0.493   0.480   0.439   0.440   0.438   0.467   0.457   0.464   0.448   0.443   0.474   0.458   0.469   0.445   0.462   0.438   0.424   0.407   0.379   0.414   0.409   0.421   0.406   0.432   0.448   0.436   0.429   0.452   0.436   0.457   0.446
     1.00    0.477   0.459   0.470   0.441   0.463   0.486   0.507   0.461   0.435   0.427   0.439   0.447   0.442   0.443   0.466   0.472   0.497   0.525   0.526   0.470   0.488   0.493   0.453   0.419   0.461   0.458   0.471   0.503   0.499   0.492   0.523   0.553   0.557   0.603   0.606   0.583   0.563   0.521   0.514   0.558   0.558   0.562   0.534   0.560   0.512   0.522   0.524   0.529   0.548   0.552   0.553   0.529   0.511   0.496   0.531   0.516   0.470   0.500   0.491   0.499   0.498   0.495   0.533   0.498   0.520   0.520   0.509   0.530   0.550   0.542   0.522   0.509   0.523   0.551   0.549   0.575   0.555   0.534   0.519   0.513   0.498   0.539   0.521   0.528   0.525   0.547   0.525   0.510   0.483   0.483   0.482   0.492   0.531   0.522   0.481   0.493   0.517   0.497   0.509   0.469   0.472   0.455   0.446   0.430   0.421   0.427   0.452   0.439   0.420   0.433   0.459   0.427   0.459   0.438   0.472   0.465   0.486   0.485   0.482   0.469   0.425   0.411   0.453   0.493   0.441   0.473   0.488   0.479   0.496   0.494   0.478   0.495   0.522   0.513   0.513   0.477   0.511   0.498   0.456   0.451   0.428   0.406   0.396   0.392   0.383   0.429   0.378   0.392   0.408   0.418   0.471   0.473   0.452   0.438   0.446   0.445   0.457   0.474   0.487   0.465   0.479   0.516   0.496   0.454   0.472   0.432   0.430   0.455   0.447   0.435   0.440   0.421   0.438   0.470   0.451   0.439   0.470   0.443   0.427   0.407   0.406   0.419   0.413   0.375   0.408   0.424   0.453   0.418   0.468   0.470   0.499   0.466   0.471

   Height   Standard deviation at grid points for the v component:
   354.40    0.391   0.388   0.387   0.384   0.384   0.390   0.389   0.377   0.382   0.396   0.398   0.387   0.384   0.387   0.408   0.386   0.370   0.354   0.370   0.372   0.373   0.355   0.310   0.319   0.353   0.363   0.382   0.378   0.405   0.397   0.407   0.364   0.372   0.370   0.373   0.392   0.386   0.389   0.383   0.385   0.397   0.391   0.389   0.385   0.403   0.386   0.382   0.383   0.388   0.377   0.400   0.418   0.422   0.424   0.418   0.395   0.396   0.378   0.371   0.390   0.400   0.400   0.400   0.417   0.419   0.410   0.409   0.420   0.415   0.409   0.399   0.387   0.404   0.422   0.410   0.424   0.411   0.414   0.428   0.413   0.392   0.376   0.361   0.356   0.350   0.357   0.368   0.362   0.348   0.357   0.340   0.359   0.373   0.373   0.369   0.380   0.382   0.402   0.403   0.402   0.385   0.368   0.381   0.367   0.363   0.355   0.351   0.350   0.362   0.348   0.373   0.397   0.409   0.372   0.383   0.346   0.356   0.375   0.393   0.386   0.376   0.371   0.375   0.394   0.377   0.390   0.384   0.394   0.406   0.419   0.406   0.421   0.392   0.403   0.408   0.405   0.384   0.385   0.387   0.398   0.424   0.407   0.409   0.417   0.417   0.393   0.398   0.380   0.351   0.365   0.371   0.368   0.354   0.376   0.377   0.386   0.384   0.404   0.383   0.386   0.391   0.409   0.403   0.403   0.385   0.372   0.392   0.396   0.386   0.415   0.406   0.399   0.403   0.381   0.378   0.393   0.400   0.403   0.396   0.394   0.365   0.346   0.343   0.359   0.350   0.364   0.370   0.363   0.380   0.380   0.371   0.388   0.398
   345.10    0.391   0.396   0.385   0.397   0.385   0.390   0.385   0.384   0.373   0.369   0.373   0.365   0.378   0.375   0.375   0.384   0.384   0.389   0.374   0.355   0.375   0.372   0.347   0.328   0.343   0.370   0.371   0.378   0.405   0.397   0.402   0.382   0.363   0.354   0.378   0.370   0.376   0.371   0.382   0.369   0.385   0.395   0.384   0.371   0.390   0.378   0.385   0.392   0.387   0.387   0.391   0.377   0.409   0.408   0.423   0.389   0.385   0.382   0.374   0.383   0.396   0.410   0.409   0.419   0.390   0.395   0.402   0.423   0.387   0.397   0.418   0.394   0.409   0.421   0.403   0.413   0.413   0.394   0.428   0.413   0.405   0.396   0.379   0.360   0.328   0.342   0.347   0.336   0.346   0.347   0.343   0.350   0.376   0.385   0.369   0.369   0.394   0.392   0.401   0.413   0.388   0.383   0.365   0.364   0.370   0.363   0.341   0.349   0.360   0.365   0.387   0.385   0.389   0.369   0.359   0.362   0.342   0.368   0.387   0.386   0.391   0.405   0.404   0.386   0.385   0.398   0.392   0.397   0.406   0.418   0.411   0.412   0.416   0.414   0.425   0.409   0.392   0.412   0.400   0.418   0.418   0.402   0.419   0.403   0.415   0.408   0.396   0.401   0.379   0.384   0.384   0.371   0.370   0.376   0.379   0.401   0.388   0.383   0.392   0.386   0.387   0.410   0.403   0.399   0.392   0.410   0.406   0.420   0.405   0.421   0.411   0.398   0.407   0.381   0.391   0.377   0.402   0.404   0.400   0.381   0.374   0.348   0.353   0.352   0.369   0.352   0.363   0.374   0.388   0.365   0.376   0.380   0.400
   335.80    0.397   0.380   0.376   0.395   0.389   0.371   0.366   0.372   0.374   0.364   0.345   0.367   0.366   0.369   0.366   0.366   0.367   0.386   0.380   0.374   0.367   0.363   0.339   0.348   0.351   0.367   0.380   0.377   0.382   0.415   0.404   0.391   0.370   0.373   0.347   0.350   0.366   0.360   0.365   0.369   0.374   0.379   0.394   0.388   0.388   0.376   0.392   0.384   0.409   0.432   0.400   0.425   0.414   0.408   0.416   0.410   0.394   0.373   0.378   0.378   0.367   0.398   0.402   0.419   0.419   0.406   0.401   0.413   0.388   0.403   0.392   0.401   0.387   0.392   0.384   0.401   0.395   0.404   0.406   0.398   0.408   0.409   0.395   0.375   0.336   0.327   0.341   0.328   0.344   0.348   0.352   0.356   0.373   0.383   0.389   0.396   0.404   0.401   0.398   0.413   0.399   0.379   0.368   0.375   0.354   0.356   0.352   0.367   0.380   0.376   0.366   0.374   0.389   0.382   0.354   0.368   0.380   0.375   0.386   0.395   0.405   0.413   0.404   0.388   0.400   0.396   0.422   0.407   0.407   0.406   0.417   0.421   0.403   0.415   0.429   0.415   0.405   0.415   0.404   0.404   0.416   0.401   0.411   0.422   0.391   0.407   0.413   0.388   0.382   0.391   0.363   0.367   0.380   0.391   0.385   0.380   0.386   0.388   0.388   0.384   0.371   0.411   0.406   0.404   0.391   0.403   0.414   0.401   0.411   0.428   0.431   0.421   0.417   0.403   0.389   0.406   0.397   0.396   0.410   0.406   0.374   0.360   0.378   0.382   0.378   0.363   0.366   0.377   0.380   0.382   0.383   0.376   0.396
   326.50    0.388   0.390   0.388   0.399   0.406   0.386   0.360   0.369   0.382   0.367   0.371   0.371   0.366   0.386   0.352   0.359   0.389   0.395   0.375   0.379   0.377   0.359   0.343   0.353   0.352   0.360   0.374   0.375   0.389   0.407   0.409   0.395   0.388   0.372   0.364   0.348   0.356   0.364   0.357   0.384   0.363   0.375   0.378   0.370   0.375   0.382   0.383   0.399   0.423   0.408   0.421   0.433   0.429   0.413   0.415   0.418   0.392   0.393   0.364   0.373   0.373   0.364   0.386   0.382   0.369   0.383   0.370   0.402   0.409   0.394   0.409   0.394   0.380   0.391   0.388   0.393   0.408   0.404   0.420   0.408   0.411   0.398   0.382   0.400   0.352   0.339   0.348   0.363   0.360   0.342   0.340   0.347   0.374   0.386   0.376   0.390   0.389   0.391   0.411   0.413   0.395   0.384   0.402   0.372   0.376   0.367   0.384   0.385   0.385   0.381   0.381   0.374   0.394   0.376   0.356   0.364   0.397   0.374   0.409   0.440   0.420   0.394   0.416   0.399   0.397   0.410   0.412   0.408   0.394   0.414   0.420   0.417   0.410   0.402   0.399   0.403   0.429   0.431   0.414   0.396   0.416   0.398   0.405   0.418   0.399   0.405   0.416   0.401   0.383   0.385   0.365   0.368   0.404   0.379   0.384   0.376   0.406   0.397   0.377   0.389   0.395   0.440   0.431   0.431   0.431   0.427   0.400   0.414   0.409   0.408   0.395   0.402   0.405   0.381   0.385   0.390   0.399   0.404   0.403   0.392   0.387   0.390   0.373   0.356   0.354   0.364   0.365   0.374   0.378   0.384   0.400   0.390   0.387
[...]
   103.30    0.245   0.249   0.244   0.246   0.242   0.237   0.243   0.235   0.234   0.237   0.237   0.237   0.236   0.233   0.234   0.233   0.235   0.230   0.240   0.234   0.242   0.245   0.249   0.249   0.248   0.240   0.250   0.243   0.245   0.237   0.242   0.236   0.226   0.231   0.227   0.236   0.236   0.239   0.241   0.245   0.233   0.233   0.231   0.233   0.235   0.243   0.238   0.240   0.237   0.242   0.234   0.238   0.240   0.246   0.239   0.241   0.234   0.234   0.232   0.231   0.243   0.242   0.233   0.239   0.244   0.233   0.226   0.231   0.239   0.235   0.235   0.242   0.244   0.238   0.242   0.231   0.237   0.246   0.233   0.229   0.240   0.246   0.236   0.238   0.243   0.241   0.239   0.234   0.239   0.240   0.236   0.233   0.233   0.246   0.243   0.232   0.237   0.236   0.228   0.233   0.231   0.229   0.227   0.232   0.228   0.237   0.231   0.231   0.230   0.231   0.238   0.240   0.236   0.242   0.234   0.229   0.241   0.235   0.227   0.235   0.228   0.234   0.227   0.232   0.237   0.235   0.243   0.233   0.237   0.236   0.227   0.234   0.225   0.234   0.230   0.228   0.219   0.218   0.222   0.221   0.230   0.236   0.234   0.240   0.230   0.226   0.234   0.236   0.241   0.244   0.247   0.238   0.234   0.231   0.226   0.236   0.235   0.239   0.243   0.247   0.240   0.250   0.247   0.247   0.242   0.247   0.243   0.245   0.238   0.229   0.235   0.235   0.245   0.244   0.251   0.243   0.250   0.252   0.259   0.252   0.240   0.238   0.241   0.245   0.244   0.246   0.244   0.246   0.247   0.255   0.247   0.239   0.238
    94.00    0.245   0.241   0.239   0.241   0.243   0.245   0.245   0.233   0.226   0.230   0.230   0.233   0.230   0.237   0.236   0.230   0.236   0.232   0.240   0.240   0.241   0.244   0.245   0.244   0.241   0.240   0.239   0.242   0.239   0.239   0.238   0.234   0.229   0.227   0.228   0.230   0.232   0.245   0.244   0.240   0.230   0.231   0.246   0.237   0.240   0.240   0.239   0.237   0.237   0.234   0.242   0.242   0.240   0.239   0.239   0.240   0.240   0.232   0.238   0.233   0.236   0.234   0.229   0.231   0.234   0.236   0.227   0.231   0.241   0.239   0.238   0.245   0.242   0.237   0.236   0.235   0.232   0.236   0.236   0.234   0.242   0.242   0.244   0.242   0.244   0.241   0.241   0.244   0.239   0.238   0.232   0.236   0.227   0.232   0.233   0.226   0.230   0.226   0.226   0.228   0.225   0.224   0.232   0.230   0.226   0.237   0.231   0.226   0.227   0.233   0.230   0.241   0.240   0.240   0.232   0.239   0.239   0.235   0.243   0.231   0.235   0.236   0.228   0.240   0.234   0.234   0.236   0.238   0.231   0.231   0.236   0.233   0.238   0.238   0.227   0.226   0.223   0.227   0.225   0.226   0.229   0.228   0.235   0.236   0.234   0.237   0.236   0.235   0.236   0.249   0.244   0.239   0.236   0.240   0.225   0.234   0.238   0.236   0.242   0.247   0.241   0.248   0.250   0.251   0.246   0.246   0.249   0.243   0.235   0.236   0.237   0.240   0.243   0.245   0.237   0.246   0.251   0.254   0.255   0.249   0.241   0.233   0.245   0.247   0.251   0.240   0.246   0.249   0.248   0.250   0.242   0.235   0.237
    84.70    0.241   0.236   0.237   0.234   0.240   0.235   0.241   0.234   0.229   0.225   0.235   0.231   0.231   0.228   0.230   0.234   0.237   0.233   0.239   0.236   0.240   0.238   0.238   0.242   0.240   0.232   0.240   0.231   0.230   0.235   0.236   0.239   0.243   0.222   0.234   0.236   0.238   0.233   0.246   0.240   0.235   0.243   0.236   0.242   0.241   0.234   0.235   0.237   0.245   0.243   0.243   0.240   0.238   0.238   0.238   0.236   0.242   0.243   0.244   0.239   0.238   0.228   0.235   0.240   0.239   0.242   0.238   0.233   0.234   0.239   0.236   0.242   0.239   0.238   0.236   0.231   0.227   0.232   0.233   0.235   0.241   0.246   0.239   0.239   0.241   0.239   0.243   0.241   0.238   0.240   0.230   0.222   0.223   0.229   0.235   0.241   0.232   0.222   0.234   0.235   0.224   0.228   0.230   0.240   0.238   0.241   0.242   0.234   0.227   0.229   0.224   0.232   0.235   0.234   0.236   0.241   0.244   0.243   0.230   0.232   0.233   0.237   0.234   0.234   0.235   0.233   0.234   0.230   0.223   0.227   0.227   0.239   0.242   0.238   0.232   0.231   0.225   0.220   0.228   0.221   0.225   0.227   0.233   0.240   0.241   0.234   0.243   0.237   0.243   0.244   0.235   0.235   0.236   0.244   0.238   0.237   0.233   0.244   0.239   0.240   0.242   0.246   0.247   0.244   0.240   0.246   0.248   0.242   0.236   0.230   0.240   0.240   0.241   0.240   0.243   0.250   0.249   0.248   0.249   0.242   0.239   0.236   0.242   0.245   0.241   0.249   0.248   0.239   0.244   0.251   0.239   0.241   0.244
    75.40    0.235   0.238   0.234   0.237   0.240   0.233   0.233   0.236   0.227   0.225   0.233   0.227   0.227   0.229   0.235   0.233   0.231   0.229   0.229   0.231   0.234   0.239   0.235   0.240   0.236   0.232   0.227   0.224   0.234   0.233   0.230   0.234   0.240   0.228   0.228   0.236   0.232   0.237   0.237   0.240   0.240   0.243   0.241   0.239   0.246   0.249   0.245   0.237   0.242   0.236   0.240   0.240   0.232   0.239   0.229   0.230   0.237   0.239   0.241   0.239   0.245   0.235   0.231   0.234   0.233   0.238   0.236   0.236   0.244   0.242   0.242   0.245   0.245   0.245   0.234   0.231   0.222   0.232   0.236   0.242   0.240   0.239   0.237   0.229   0.229   0.229   0.238   0.234   0.237   0.233   0.238   0.228   0.231   0.226   0.233   0.229   0.234   0.223   0.230   0.235   0.235   0.231   0.233   0.238   0.234   0.241   0.239   0.240   0.230   0.229   0.231   0.229   0.231   0.244   0.242   0.236   0.234   0.241   0.244   0.240   0.237   0.243   0.241   0.234   0.232   0.239   0.237   0.233   0.231   0.230   0.226   0.237   0.233   0.232   0.237   0.227   0.230   0.232   0.235   0.229   0.233   0.235   0.245   0.239   0.241   0.236   0.236   0.242   0.235   0.236   0.233   0.236   0.232   0.238   0.234   0.238   0.226   0.234   0.238   0.239   0.236   0.247   0.246   0.246   0.245   0.250   0.242   0.252   0.238   0.237   0.243   0.233   0.239   0.236   0.243   0.248   0.244   0.250   0.243   0.237   0.240   0.235   0.239   0.244   0.248   0.246   0.248   0.243   0.248   0.249   0.238   0.241   0.239
    66.10    0.237   0.239   0.236   0.231   0.236   0.228   0.233   0.233   0.235   0.236   0.233   0.225   0.230   0.232   0.236   0.228   0.228   0.232   0.237   0.232   0.233   0.236   0.230   0.237   0.238   0.238   0.237   0.231   0.228   0.229   0.229   0.230   0.232   0.228   0.234   0.237   0.242   0.238   0.239   0.237   0.237   0.243   0.248   0.239   0.246   0.243   0.233   0.239   0.243   0.240   0.240   0.234   0.233   0.234   0.233   0.240   0.239   0.237   0.238   0.234   0.234   0.237   0.239   0.232   0.240   0.241   0.233   0.237   0.251   0.249   0.247   0.246   0.248   0.245   0.241   0.242   0.235   0.236   0.238   0.242   0.229   0.237   0.233   0.226   0.230   0.227   0.231   0.235   0.234   0.237   0.240   0.233   0.232   0.229   0.236   0.235   0.226   0.229   0.233   0.229   0.238   0.232   0.226   0.237   0.240   0.240   0.242   0.238   0.222   0.229   0.228   0.227   0.230   0.234   0.236   0.235   0.235   0.235   0.244   0.240   0.227   0.222   0.235   0.236   0.234   0.233   0.243   0.240   0.236   0.237   0.240   0.239   0.238   0.234   0.241   0.235   0.238   0.232   0.232   0.236   0.239   0.242   0.238   0.239   0.241   0.251   0.242   0.243   0.239   0.233   0.231   0.244   0.239   0.232   0.240   0.242   0.239   0.232   0.231   0.237   0.235   0.240   0.247   0.242   0.245   0.245   0.246   0.247   0.245   0.243   0.236   0.237   0.243   0.242   0.255   0.253   0.250   0.246   0.244   0.232   0.235   0.235   0.238   0.239   0.243   0.243   0.246   0.229   0.242   0.247   0.249   0.242   0.244
    56.80    0.237   0.239   0.225   0.231   0.234   0.232   0.236   0.230   0.240   0.237   0.225   0.231   0.234   0.235   0.234   0.230   0.228   0.232   0.232   0.233   0.230   0.222   0.228   0.234   0.236   0.238   0.233   0.235   0.236   0.229   0.230   0.229   0.230   0.239   0.233   0.236   0.235   0.236   0.229   0.235   0.240   0.244   0.243   0.240   0.237   0.242   0.247   0.252   0.245   0.243   0.247   0.238   0.235   0.228   0.229   0.236   0.235   0.229   0.235   0.222   0.229   0.234   0.234   0.233   0.243   0.246   0.234   0.243   0.243   0.240   0.249   0.249   0.250   0.250   0.247   0.239   0.244   0.238   0.238   0.239   0.237   0.235   0.236   0.230   0.229   0.229   0.232   0.233   0.233   0.240   0.236   0.234   0.237   0.236   0.240   0.235   0.239   0.236   0.230   0.227   0.227   0.226   0.227   0.237   0.234   0.240   0.245   0.239   0.231   0.222   0.221   0.226   0.224   0.233   0.230   0.229   0.226   0.228   0.229   0.236   0.221   0.225   0.233   0.232   0.232   0.239   0.243   0.246   0.241   0.236   0.240   0.235   0.236   0.242   0.237   0.236   0.235   0.237   0.238   0.240   0.241   0.247   0.244   0.246   0.241   0.247   0.243   0.241   0.239   0.235   0.239   0.246   0.237   0.240   0.247   0.244   0.235   0.236   0.232   0.238   0.237   0.241   0.242   0.245   0.251   0.242   0.243   0.247   0.251   0.248   0.241   0.237   0.238   0.249   0.254   0.243   0.241   0.242   0.242   0.236   0.229   0.241   0.246   0.241   0.236   0.248   0.250   0.237   0.247   0.243   0.245   0.248   0.247
    47.50    0.236   0.236   0.230   0.225   0.233   0.228   0.229   0.235   0.230   0.230   0.233   0.233   0.234   0.239   0.233   0.233   0.238   0.229   0.229   0.233   0.230   0.220   0.222   0.237   0.234   0.229   0.228   0.226   0.232   0.235   0.235   0.233   0.232   0.241   0.234   0.234   0.238   0.234   0.228   0.232   0.236   0.230   0.230   0.231   0.232   0.241   0.253   0.256   0.245   0.245   0.243   0.237   0.241   0.238   0.227   0.232   0.229   0.230   0.232   0.229   0.230   0.230   0.232   0.227   0.239   0.246   0.242   0.237   0.240   0.244   0.247   0.249   0.244   0.250   0.245   0.242   0.244   0.236   0.235   0.238   0.233   0.235   0.230   0.236   0.236   0.230   0.235   0.228   0.232   0.242   0.245   0.239   0.235   0.244   0.237   0.234   0.237   0.231   0.228   0.225   0.229   0.233   0.238   0.231   0.234   0.238   0.241   0.235   0.228   0.223   0.227   0.230   0.229   0.226   0.225   0.222   0.232   0.232   0.235   0.235   0.238   0.230   0.233   0.234   0.235   0.234   0.243   0.231   0.239   0.238   0.240   0.237   0.242   0.237   0.239   0.232   0.235   0.245   0.244   0.247   0.247   0.244   0.244   0.247   0.251   0.244   0.242   0.239   0.240   0.235   0.242   0.246   0.246   0.249   0.242   0.239   0.240   0.237   0.234   0.244   0.243   0.246   0.242   0.253   0.248   0.242   0.252   0.246   0.253   0.246   0.246   0.245   0.237   0.245   0.251   0.250   0.239   0.244   0.240   0.242   0.232   0.244   0.248   0.242   0.238   0.245   0.244   0.246   0.250   0.240   0.239   0.245   0.251
    38.20    0.232   0.233   0.238   0.231   0.233   0.236   0.228   0.233   0.240   0.238   0.243   0.239   0.247   0.242   0.236   0.240   0.234   0.238   0.236   0.229   0.223   0.225   0.229   0.233   0.231   0.227   0.223   0.230   0.230   0.227   0.231   0.235   0.230   0.228   0.236   0.233   0.232   0.233   0.233   0.228   0.221   0.221   0.224   0.234   0.235   0.239   0.245   0.242   0.241   0.234   0.232   0.229   0.237   0.242   0.237   0.240   0.230   0.235   0.230   0.227   0.233   0.232   0.231   0.228   0.240   0.242   0.234   0.236   0.233   0.222   0.240   0.246   0.254   0.254   0.245   0.251   0.247   0.234   0.230   0.231   0.234   0.238   0.234   0.232   0.238   0.234   0.229   0.226   0.223   0.231   0.235   0.239   0.235   0.232   0.232   0.236   0.233   0.232   0.233   0.240   0.231   0.227   0.223   0.234   0.238   0.233   0.230   0.233   0.224   0.230   0.235   0.233   0.227   0.228   0.229   0.231   0.234   0.234   0.229   0.237   0.232   0.236   0.229   0.233   0.232   0.230   0.235   0.234   0.229   0.230   0.233   0.234   0.238   0.243   0.237   0.231   0.231   0.255   0.251   0.252   0.246   0.243   0.245   0.245   0.248   0.247   0.242   0.241   0.242   0.234   0.243   0.245   0.247   0.241   0.248   0.242   0.235   0.245   0.238   0.241   0.238   0.241   0.246   0.249   0.253   0.245   0.248   0.256   0.254   0.256   0.247   0.241   0.247   0.245   0.244   0.243   0.236   0.237   0.239   0.236   0.236   0.236   0.236   0.237   0.237   0.236   0.236   0.238   0.243   0.232   0.236   0.249   0.244
    28.90    0.231   0.228   0.232   0.233   0.230   0.241   0.233   0.233   0.237   0.242   0.240   0.237   0.244   0.239   0.244   0.237   0.238   0.238   0.242   0.230   0.228   0.228   0.227   0.232   0.222   0.229   0.227   0.234   0.229   0.227   0.237   0.228   0.231   0.233   0.240   0.244   0.226   0.225   0.227   0.227   0.229   0.223   0.227   0.228   0.234   0.235   0.241   0.238   0.233   0.228   0.233   0.234   0.230   0.237   0.232   0.233   0.236   0.232   0.232   0.230   0.230   0.226   0.229   0.238   0.242   0.237   0.231   0.238   0.230   0.228   0.237   0.239   0.247   0.246   0.243   0.245   0.242   0.236   0.234   0.236   0.233   0.238   0.233   0.235   0.235   0.231   0.231   0.229   0.228   0.232   0.245   0.238   0.238   0.237   0.231   0.235   0.236   0.237   0.226   0.231   0.235   0.224   0.231   0.235   0.231   0.234   0.233   0.236   0.239   0.237   0.237   0.240   0.233   0.234   0.233   0.228   0.238   0.234   0.232   0.234   0.229   0.235   0.239   0.242   0.233   0.235   0.235   0.235   0.234   0.227   0.228   0.230   0.233   0.241   0.237   0.238   0.238   0.251   0.246   0.248   0.253   0.247   0.245   0.245   0.245   0.244   0.243   0.239   0.238   0.250   0.245   0.244   0.247   0.245   0.255   0.253   0.245   0.244   0.245   0.239   0.235   0.239   0.247   0.248   0.249   0.250   0.251   0.252   0.254   0.248   0.246   0.245   0.249   0.245   0.246   0.230   0.231   0.232   0.236   0.234   0.232   0.229   0.242   0.237   0.238   0.237   0.232   0.236   0.239   0.236   0.236   0.242   0.229
    19.60    0.231   0.236   0.230   0.229   0.235   0.238   0.242   0.233   0.238   0.237   0.238   0.229   0.237   0.234   0.242   0.235   0.242   0.252   0.235   0.231   0.226   0.225   0.218   0.230   0.232   0.225   0.226   0.228   0.235   0.229   0.235   0.237   0.236   0.240   0.240   0.242   0.236   0.233   0.230   0.230   0.228   0.222   0.224   0.232   0.243   0.233   0.244   0.232   0.230   0.231   0.227   0.229   0.221   0.224   0.232   0.233   0.233   0.233   0.229   0.223   0.229   0.229   0.227   0.239   0.240   0.240   0.242   0.239   0.235   0.225   0.229   0.235   0.237   0.244   0.239   0.244   0.245   0.240   0.235   0.237   0.233   0.229   0.230   0.230   0.237   0.231   0.234   0.234   0.234   0.240   0.242   0.243   0.241   0.240   0.234   0.232   0.234   0.230   0.231   0.235   0.228   0.231   0.235   0.239   0.237   0.238   0.230   0.235   0.238   0.237   0.233   0.238   0.231   0.228   0.233   0.240   0.238   0.238   0.237   0.236   0.246   0.235   0.238   0.243   0.236   0.228   0.239   0.236   0.239   0.235   0.230   0.232   0.236   0.241   0.239   0.233   0.238   0.242   0.246   0.248   0.250   0.249   0.238   0.240   0.239   0.239   0.238   0.237   0.245   0.243   0.245   0.243   0.252   0.250   0.258   0.254   0.245   0.241   0.241   0.235   0.231   0.233   0.242   0.241   0.238   0.249   0.255   0.252   0.242   0.249   0.239   0.233   0.238   0.240   0.243   0.242   0.232   0.241   0.241   0.243   0.236   0.230   0.238   0.239   0.244   0.239   0.235   0.236   0.244   0.246   0.238   0.244   0.236
    10.30    0.241   0.236   0.233   0.233   0.237   0.241   0.237   0.235   0.230   0.229   0.237   0.232   0.229   0.234   0.245   0.231   0.238   0.241   0.243   0.221   0.231   0.232   0.230   0.230   0.222   0.229   0.231   0.240   0.237   0.229   0.234   0.234   0.234   0.240   0.239   0.239   0.234   0.238   0.232   0.238   0.238   0.238   0.233   0.237   0.238   0.236   0.239   0.237   0.232   0.236   0.232   0.226   0.226   0.225   0.234   0.232   0.237   0.242   0.236   0.227   0.227   0.233   0.232   0.236   0.237   0.248   0.245   0.239   0.239   0.238   0.226   0.232   0.229   0.244   0.245   0.243   0.231   0.233   0.237   0.235   0.228   0.224   0.232   0.230   0.235   0.238   0.234   0.240   0.242   0.248   0.248   0.246   0.242   0.239   0.229   0.225   0.229   0.227   0.229   0.236   0.227   0.233   0.243   0.246   0.237   0.239   0.241   0.233   0.234   0.228   0.226   0.229   0.229   0.228   0.233   0.236   0.235   0.239   0.236   0.238   0.238   0.241   0.243   0.247   0.228   0.231   0.235   0.236   0.236   0.239   0.237   0.235   0.237   0.240   0.234   0.236   0.240   0.240   0.244   0.244   0.244   0.249   0.242   0.235   0.234   0.238   0.238   0.244   0.247   0.243   0.242   0.247   0.248   0.250   0.246   0.253   0.251   0.249   0.239   0.236   0.231   0.231   0.240   0.244   0.237   0.235   0.237   0.244   0.241   0.243   0.244   0.241   0.241   0.249   0.253   0.247   0.241   0.247   0.246   0.246   0.240   0.239   0.239   0.239   0.246   0.232   0.231   0.236   0.244   0.246   0.246   0.242   0.241
     1.00    0.237   0.242   0.238   0.236   0.232   0.238   0.234   0.234   0.236   0.230   0.235   0.244   0.239   0.239   0.242   0.238   0.236   0.234   0.233   0.234   0.236   0.234   0.228   0.230   0.229   0.231   0.234   0.239   0.231   0.234   0.231   0.236   0.235   0.236   0.236   0.240   0.240   0.238   0.237   0.244   0.236   0.232   0.233   0.234   0.239   0.241   0.239   0.238   0.242   0.237   0.229   0.226   0.222   0.228   0.226   0.233   0.240   0.237   0.236   0.227   0.232   0.239   0.243   0.237   0.243   0.238   0.246   0.249   0.244   0.238   0.236   0.232   0.242   0.241   0.235   0.241   0.233   0.237   0.235   0.233   0.236   0.242   0.228   0.231   0.232   0.243   0.239   0.231   0.236   0.232   0.248   0.242   0.234   0.241   0.231   0.236   0.240   0.226   0.232   0.234   0.227   0.231   0.236   0.240   0.238   0.239   0.242   0.242   0.229   0.235   0.233   0.231   0.232   0.234   0.231   0.233   0.237   0.239   0.231   0.240   0.238   0.235   0.235   0.236   0.227   0.228   0.237   0.239   0.237   0.239   0.238   0.241   0.242   0.238   0.244   0.237   0.241   0.239   0.245   0.244   0.242   0.248   0.244   0.235   0.238   0.238   0.239   0.245   0.246   0.244   0.240   0.252   0.247   0.246   0.249   0.238   0.240   0.243   0.244   0.238   0.235   0.238   0.239   0.234   0.243   0.236   0.234   0.235   0.240   0.247   0.245   0.247   0.248   0.244   0.248   0.249   0.245   0.247   0.245   0.235   0.243   0.241   0.238   0.238   0.239   0.233   0.226   0.238   0.240   0.239   0.245   0.242   0.244

   Mean standard deviation across all grid points:
      u component:    0.467 m/s
      v component:    0.392 m/s
      w component:    0.237 m/s


U-component (X) statistics from the interpolated hub point:

   Mean =   9.7063 m/s
   TI   =   4.8357 %


Processing complete.  2.13949E+05 CPU seconds used.
