
This summary file was generated by TurbSim (from OpenFAST-v3.5.3) on 20-Apr-2025 at 13:11:20.


Runtime Options:

**********  Random seed #1
    RANLUX  Type of random number generator
         F  Output binary HH turbulence parameters?
         F  Output formatted turbulence parameters?
         F  Output AeroDyn HH files?
         T  Output AeroDyn FF files?
         F  Output BLADED FF files?
         F  Output tower data?
         F  Output HAWC FF files?
         F  Output formatted FF files?
         T  Output coherent turbulence time step file?
 0 -  NONE  IEC turbulence models scaled to exact specified standard deviation


Turbine/Model Specifications:

        37  Vertical grid-point matrix dimension
        35  Horizontal grid-point matrix dimension
     0.250  Time step [seconds]
   900.000  Analysis time [seconds]
   900.000  Usable output time [seconds]
    89.350  Hub height [m]
   167.400  Grid height [m]
   158.100  Grid width [m]
     0.000  Vertical flow angle [degrees]
     0.000  Horizontal flow angle [degrees]


Meteorological Boundary Conditions:

    TIMESR  User-input time series spectral model
       N/A  IEC standard
       N/A  IEC turbulence characteristic
       N/A  IEC turbulence type
       N/A  IEC Extreme Turbulence Model (ETM) "c" parameter [m/s]
       PL   Wind profile type
    90.000  Reference height [m]
    10.000  Reference wind speed [m/s]
       N/A  Jet height [m]
     0.120  Power law exponent
     0.030  Surface roughness length [m]


Non-IEC Meteorological Boundary Conditions:

    45.000  Site latitude [degrees]
     0.050  Gradient Richardson number
     0.480  Friction or shear velocity [m/s]
       N/A  Mixing layer depth [m]
       N/A  Mean hub u'w' Reynolds stress
       N/A  Mean hub u'v' Reynolds stress
       N/A  Mean hub v'w' Reynolds stress


Spatial Coherence Models:

       IEC  u-component coherence model
       IEC  v-component coherence model
       IEC  w-component coherence model
(   12.000, 0.353E-03)  u-component coherence parameters
(   12.000, 0.353E-03)  v-component coherence parameters
(   12.000, 0.353E-03)  w-component coherence parameters
       N/A  Coherence exponent


Coherent Turbulence Scaling Parameters:

.\EventData
            Name of the path containing the coherent turbulence data files
       les  Type of coherent turbulence data files
     0.500  Disturbance scale (ratio of wave height to rotor diameter)
     0.500  Fractional location of tower centerline from right
     1.000  Fractional location of hub height from the bottom of the dataset
    30.000  Minimum start time for coherent structures [seconds]


Profiles from User-Defined Time-Series Input:

  Height   Wind Speed   Horizontal Angle   Vertical Angle
   (m)        (m/s)          (deg)              (deg)    
  ------   ----------   ----------------   --------------
   94.00      10.00          -0.63               -0.00


You have requested that the following file(s) be generated:

   /kfs3/scratch/agupta/Projects/RL_Incubator/FinalRuns_Veer/Seed4/./FFSim_Seed4/Cond00_v10.0_PL0.12_TI5.0/Case3_wdirp06/Seed_9/TurbSim/HighT10.bts (AeroDyn/TurbSim full-field wind file)


Turbulence Simulation Scaling Parameter Summary:

   Turbulence model used                            =  User-input time series
   Gradient Richardson number                       =    0.050
   Monin-Obukhov (M-O) z/L parameter                =    0.067
   Monin-Obukhov (M-O) length scale                 = 1340.250 m
   Mean wind speed at hub height                    =    9.991 m/s

   Wind profile type                                =  Power law
   Power law exponent                               =    0.120
   Mean shear across rotor disk                     =    0.019 (m/s)/m
   Assumed rotor diameter                           =  158.100 m
   Surface roughness length                         =    0.030 m

   Nyquist frequency of turbulent wind field        =    2.000 Hz

   Number of time steps in the FFT                  =     3600
   Number of time steps output                      =     3600
   Number of points simulated                       =     1296


Mean Flow Angles:

   Vertical   =   0.0 degrees
   Horizontal =   0.0 degrees

Mean Wind Speed Profile:

   Height    Wind Speed   Horizontal Angle  Vertical Angle  U-comp (X)   V-comp (Y)   W-comp (Z)
     (m)        (m/s)         (degrees)       (degrees)       (m/s)        (m/s)        (m/s)   
   ------    ----------   ----------------  --------------  ----------   ----------   ----------
    168.4       10.78            0.00            0.00         10.78         0.00         0.00
    163.7       10.74            0.00            0.00         10.74         0.00         0.00
    159.1       10.71            0.00            0.00         10.71         0.00         0.00
    154.4       10.67            0.00            0.00         10.67         0.00         0.00
    149.8       10.63            0.00            0.00         10.63         0.00         0.00
    145.1       10.59            0.00            0.00         10.59         0.00         0.00
    140.5       10.55            0.00            0.00         10.55         0.00         0.00
    135.8       10.51            0.00            0.00         10.51         0.00         0.00
    131.2       10.46            0.00            0.00         10.46         0.00         0.00
    126.5       10.42            0.00            0.00         10.42         0.00         0.00
    121.9       10.37            0.00            0.00         10.37         0.00         0.00
    117.2       10.32            0.00            0.00         10.32         0.00         0.00
    112.6       10.27            0.00            0.00         10.27         0.00         0.00
    107.9       10.22            0.00            0.00         10.22         0.00         0.00
    103.3       10.17            0.00            0.00         10.17         0.00         0.00
     98.6       10.11            0.00            0.00         10.11         0.00         0.00
     94.0       10.05            0.00            0.00         10.05         0.00         0.00
     89.3        9.99            0.00            0.00          9.99         0.00         0.00
     84.7        9.93            0.00            0.00          9.93         0.00         0.00
     80.0        9.86            0.00            0.00          9.86         0.00         0.00
     75.4        9.79            0.00            0.00          9.79         0.00         0.00
     70.7        9.72            0.00            0.00          9.72         0.00         0.00
     66.1        9.64            0.00            0.00          9.64         0.00         0.00
     61.4        9.55            0.00            0.00          9.55         0.00         0.00
     56.8        9.46            0.00            0.00          9.46         0.00         0.00
     52.1        9.37            0.00            0.00          9.37         0.00         0.00
     47.5        9.26            0.00            0.00          9.26         0.00         0.00
     42.8        9.15            0.00            0.00          9.15         0.00         0.00
     38.2        9.02            0.00            0.00          9.02         0.00         0.00
     33.5        8.88            0.00            0.00          8.88         0.00         0.00
     28.9        8.73            0.00            0.00          8.73         0.00         0.00
     24.2        8.54            0.00            0.00          8.54         0.00         0.00
     19.6        8.33            0.00            0.00          8.33         0.00         0.00
     14.9        8.06            0.00            0.00          8.06         0.00         0.00
     10.3        7.71            0.00            0.00          7.71         0.00         0.00
      5.6        7.17            0.00            0.00          7.17         0.00         0.00
      1.0        5.83            0.00            0.00          5.83         0.00         0.00


Harvested Random Seeds after Generation of the Random Numbers:

     65026800 K 1
            0 K 2


Hub-Height Simulated Turbulence Statistical Summary:

   Type of Wind        Min (m/s)   Mean (m/s)    Max (m/s)  Sigma (m/s)       TI (%)
   ----------------    ---------   ----------    ---------  -----------       ------
   Longitudinal (u)         8.55         9.99        11.09        0.361        3.610
   Lateral (v)             -1.28         0.00         1.31        0.401        4.011
   Vertical (w)            -0.85         0.00         0.70        0.233        2.332
   U component              8.55         9.99        11.09        0.361        3.610
   V component             -1.28         0.00         1.31        0.401        4.011
   W component             -0.85         0.00         0.70        0.233        2.332
   Horizontal (U&V)         8.59        10.00        11.10        0.359        3.593
   Total                    8.59        10.00        11.10        0.359        3.591

                       Min Reynolds     Mean Reynolds    Max Reynolds    Correlation
   Product             Stress (m/s)^2   Stress (m/s)^2   Stress (m/s)^2  Coefficient
   ----------------    --------------   --------------   --------------  -----------
   u'w'                     -0.465            -0.003             0.428        -0.034
   u'v'                     -1.139            -0.004             0.746        -0.026
   v'w'                     -0.489             0.004             0.564         0.047


   Friction Velocity (Ustar)  =      0.054 m/s
   Maximum Instantaneous TKE  =      1.351 (m/s)^2
   Maximum Instantaneous CTKE =      0.645 (m/s)^2


Grid Point Variance Summary:

   Y-coord  -79.05  -74.40  -69.75  -65.10  -60.45  -55.80  -51.15  -46.50  -41.85  -37.20  -32.55  -27.90  -23.25  -18.60  -13.95   -9.30   -4.65    0.00    4.65    9.30   13.95   18.60   23.25   27.90   32.55   37.20   41.85   46.50   51.15   55.80   60.45   65.10   69.75   74.40   79.05

   Height   Standard deviation at grid points for the u component:
   168.40    0.482   0.463   0.449   0.416   0.418   0.407   0.403   0.405   0.412   0.420   0.400   0.427   0.433   0.429   0.418   0.407   0.385   0.385   0.391   0.406   0.380   0.371   0.364   0.361   0.349   0.352   0.341   0.352   0.339   0.357   0.389   0.396   0.386   0.377   0.382
   163.75    0.487   0.462   0.461   0.437   0.422   0.426   0.444   0.417   0.419   0.437   0.428   0.417   0.436   0.431   0.410   0.389   0.402   0.406   0.383   0.374   0.382   0.395   0.364   0.373   0.358   0.345   0.329   0.351   0.344   0.356   0.366   0.358   0.362   0.378   0.379
   159.10    0.469   0.466   0.466   0.452   0.454   0.457   0.426   0.437   0.440   0.420   0.442   0.440   0.437   0.417   0.406   0.417   0.389   0.367   0.387   0.398   0.392   0.384   0.376   0.367   0.367   0.366   0.347   0.348   0.354   0.353   0.368   0.358   0.358   0.372   0.386
   154.45    0.478   0.469   0.463   0.481   0.479   0.463   0.443   0.431   0.433   0.430   0.432   0.434   0.424   0.415   0.403   0.378   0.377   0.389   0.388   0.396   0.361   0.369   0.351   0.343   0.350   0.348   0.353   0.350   0.352   0.354   0.356   0.347   0.352   0.352   0.377
   149.80    0.474   0.463   0.444   0.476   0.473   0.467   0.462   0.436   0.454   0.433   0.417   0.422   0.410   0.421   0.397   0.353   0.382   0.383   0.384   0.405   0.388   0.388   0.357   0.353   0.337   0.347   0.354   0.341   0.333   0.333   0.341   0.374   0.376   0.364   0.374
   145.15    0.463   0.444   0.448   0.466   0.455   0.467   0.452   0.436   0.429   0.426   0.420   0.387   0.393   0.397   0.361   0.348   0.360   0.395   0.395   0.386   0.401   0.404   0.369   0.356   0.332   0.342   0.363   0.349   0.332   0.348   0.349   0.365   0.374   0.369   0.367
   140.50    0.489   0.478   0.459   0.470   0.452   0.452   0.452   0.439   0.427   0.413   0.418   0.392   0.380   0.396   0.364   0.362   0.360   0.372   0.384   0.386   0.397   0.391   0.373   0.366   0.343   0.356   0.353   0.342   0.341   0.363   0.371   0.380   0.391   0.382   0.356
   135.85    0.482   0.482   0.489   0.463   0.462   0.442   0.438   0.426   0.435   0.418   0.397   0.385   0.377   0.372   0.361   0.381   0.368   0.375   0.376   0.386   0.377   0.371   0.380   0.360   0.359   0.359   0.366   0.354   0.355   0.385   0.383   0.401   0.388   0.392   0.353
   131.20    0.467   0.467   0.466   0.471   0.465   0.437   0.400   0.416   0.428   0.418   0.408   0.380   0.382   0.371   0.396   0.373   0.397   0.383   0.382   0.384   0.380   0.354   0.367   0.361   0.353   0.352   0.356   0.371   0.370   0.398   0.395   0.404   0.408   0.393   0.361
   126.55    0.464   0.454   0.459   0.456   0.437   0.431   0.408   0.416   0.401   0.405   0.391   0.392   0.384   0.388   0.386   0.381   0.393   0.369   0.374   0.377   0.371   0.376   0.364   0.352   0.345   0.353   0.356   0.364   0.385   0.401   0.385   0.398   0.388   0.362   0.335
   121.90    0.454   0.437   0.441   0.434   0.412   0.382   0.402   0.396   0.394   0.398   0.396   0.390   0.410   0.392   0.392   0.372   0.370   0.365   0.365   0.376   0.383   0.370   0.378   0.346   0.349   0.349   0.366   0.366   0.368   0.377   0.392   0.392   0.363   0.342   0.342
   117.25    0.428   0.429   0.443   0.406   0.386   0.372   0.393   0.392   0.385   0.384   0.393   0.393   0.389   0.376   0.356   0.361   0.357   0.359   0.361   0.362   0.349   0.369   0.369   0.346   0.349   0.336   0.360   0.351   0.348   0.358   0.366   0.357   0.359   0.360   0.333
   112.60    0.430   0.427   0.430   0.404   0.378   0.361   0.370   0.381   0.365   0.381   0.373   0.374   0.373   0.352   0.349   0.355   0.357   0.352   0.348   0.360   0.345   0.355   0.372   0.365   0.346   0.358   0.364   0.361   0.335   0.359   0.356   0.343   0.346   0.356   0.358
   107.95    0.405   0.432   0.430   0.396   0.370   0.360   0.347   0.352   0.377   0.382   0.367   0.371   0.370   0.336   0.344   0.341   0.362   0.369   0.358   0.351   0.350   0.370   0.362   0.366   0.364   0.378   0.368   0.375   0.374   0.364   0.356   0.342   0.332   0.340   0.362
   103.30    0.419   0.428   0.433   0.412   0.390   0.362   0.352   0.363   0.376   0.386   0.367   0.346   0.356   0.337   0.351   0.342   0.364   0.355   0.372   0.356   0.377   0.368   0.358   0.369   0.379   0.377   0.369   0.370   0.354   0.349   0.336   0.328   0.344   0.362   0.367
    98.65    0.436   0.430   0.424   0.409   0.405   0.373   0.376   0.389   0.393   0.385   0.356   0.331   0.339   0.351   0.353   0.360   0.378   0.368   0.372   0.374   0.357   0.382   0.359   0.351   0.375   0.361   0.364   0.344   0.354   0.333   0.319   0.346   0.336   0.367   0.347
    94.00    0.414   0.418   0.420   0.428   0.391   0.374   0.373   0.386   0.387   0.396   0.371   0.350   0.346   0.341   0.353   0.358   0.369   0.370   0.373   0.377   0.372   0.374   0.372   0.359   0.362   0.350   0.334   0.326   0.327   0.335   0.340   0.335   0.337   0.355   0.357
    89.35    0.402   0.399   0.387   0.400   0.392   0.393   0.376   0.383   0.383   0.389   0.358   0.363   0.356   0.348   0.361   0.353   0.354   0.361   0.378   0.376   0.372   0.364   0.366   0.354   0.363   0.334   0.339   0.330   0.323   0.336   0.311   0.326   0.335   0.341   0.351
    84.70    0.398   0.403   0.407   0.395   0.394   0.404   0.412   0.391   0.388   0.375   0.354   0.357   0.365   0.355   0.362   0.345   0.337   0.360   0.360   0.357   0.355   0.379   0.345   0.345   0.341   0.346   0.331   0.316   0.314   0.330   0.320   0.316   0.339   0.338   0.353
    80.05    0.378   0.388   0.406   0.414   0.410   0.401   0.390   0.374   0.365   0.376   0.373   0.360   0.359   0.345   0.334   0.339   0.363   0.354   0.363   0.367   0.342   0.357   0.348   0.342   0.338   0.340   0.326   0.319   0.315   0.310   0.329   0.337   0.349   0.346   0.341
    75.40    0.374   0.394   0.413   0.420   0.387   0.394   0.398   0.381   0.371   0.359   0.341   0.347   0.349   0.343   0.333   0.342   0.342   0.367   0.369   0.366   0.369   0.350   0.347   0.347   0.338   0.326   0.311   0.324   0.310   0.312   0.328   0.333   0.350   0.335   0.329
    70.75    0.344   0.385   0.405   0.410   0.416   0.405   0.397   0.384   0.367   0.344   0.347   0.332   0.335   0.343   0.327   0.355   0.365   0.371   0.384   0.395   0.380   0.352   0.344   0.330   0.325   0.333   0.317   0.313   0.313   0.331   0.348   0.336   0.336   0.332   0.335
    66.10    0.363   0.377   0.401   0.415   0.397   0.388   0.378   0.386   0.357   0.337   0.342   0.340   0.342   0.334   0.325   0.353   0.373   0.367   0.375   0.398   0.369   0.341   0.328   0.324   0.320   0.331   0.334   0.316   0.316   0.302   0.320   0.322   0.333   0.338   0.312
    61.45    0.385   0.396   0.404   0.404   0.406   0.383   0.365   0.381   0.363   0.353   0.344   0.359   0.350   0.345   0.332   0.341   0.350   0.358   0.359   0.358   0.350   0.343   0.337   0.337   0.328   0.320   0.316   0.304   0.295   0.295   0.304   0.331   0.328   0.332   0.337
    56.80    0.363   0.408   0.402   0.407   0.403   0.403   0.388   0.389   0.374   0.374   0.348   0.355   0.359   0.330   0.341   0.337   0.347   0.341   0.343   0.335   0.328   0.320   0.339   0.337   0.327   0.330   0.315   0.306   0.309   0.314   0.316   0.324   0.329   0.314   0.322
    52.15    0.371   0.379   0.378   0.394   0.397   0.382   0.388   0.376   0.364   0.364   0.374   0.372   0.358   0.354   0.325   0.326   0.323   0.343   0.342   0.341   0.342   0.325   0.325   0.334   0.317   0.306   0.318   0.319   0.331   0.331   0.346   0.319   0.321   0.311   0.310
    47.50    0.359   0.364   0.372   0.384   0.382   0.362   0.360   0.382   0.366   0.371   0.346   0.371   0.373   0.367   0.366   0.332   0.325   0.344   0.347   0.325   0.332   0.339   0.327   0.324   0.318   0.302   0.310   0.313   0.329   0.332   0.331   0.337   0.326   0.317   0.312
    42.85    0.367   0.373   0.367   0.361   0.371   0.361   0.367   0.382   0.381   0.377   0.353   0.372   0.384   0.369   0.364   0.328   0.345   0.340   0.330   0.344   0.343   0.331   0.327   0.322   0.331   0.316   0.319   0.321   0.319   0.299   0.320   0.317   0.329   0.338   0.322
    38.20    0.367   0.370   0.361   0.356   0.345   0.365   0.360   0.382   0.364   0.364   0.363   0.372   0.386   0.374   0.363   0.355   0.354   0.335   0.330   0.338   0.347   0.344   0.319   0.328   0.327   0.319   0.321   0.324   0.321   0.320   0.336   0.349   0.359   0.346   0.335
    33.55    0.356   0.371   0.366   0.341   0.345   0.349   0.349   0.376   0.356   0.358   0.367   0.379   0.379   0.378   0.364   0.349   0.343   0.316   0.328   0.335   0.344   0.335   0.333   0.338   0.332   0.328   0.322   0.313   0.321   0.345   0.332   0.370   0.339   0.347   0.354
    28.90    0.362   0.372   0.370   0.355   0.338   0.342   0.355   0.346   0.344   0.359   0.361   0.370   0.370   0.361   0.364   0.357   0.356   0.328   0.338   0.352   0.363   0.367   0.376   0.359   0.327   0.330   0.315   0.322   0.326   0.336   0.348   0.366   0.366   0.338   0.350
    24.25    0.345   0.334   0.351   0.332   0.332   0.330   0.346   0.338   0.348   0.375   0.372   0.360   0.371   0.368   0.353   0.357   0.359   0.344   0.347   0.355   0.352   0.367   0.369   0.351   0.342   0.347   0.341   0.319   0.336   0.352   0.351   0.371   0.366   0.353   0.356
    19.60    0.349   0.358   0.347   0.352   0.324   0.336   0.343   0.338   0.345   0.353   0.380   0.367   0.344   0.349   0.353   0.348   0.341   0.339   0.333   0.352   0.365   0.347   0.343   0.338   0.336   0.325   0.340   0.333   0.347   0.349   0.357   0.360   0.360   0.373   0.361
    14.95    0.342   0.356   0.345   0.345   0.339   0.342   0.325   0.330   0.351   0.356   0.375   0.363   0.375   0.369   0.376   0.382   0.356   0.336   0.346   0.351   0.376   0.382   0.343   0.327   0.338   0.326   0.335   0.319   0.330   0.333   0.359   0.365   0.365   0.363   0.353
    10.30    0.363   0.353   0.341   0.341   0.340   0.333   0.325   0.343   0.363   0.347   0.362   0.380   0.383   0.393   0.382   0.366   0.345   0.320   0.329   0.325   0.349   0.356   0.361   0.343   0.327   0.338   0.331   0.320   0.340   0.343   0.355   0.352   0.373   0.345   0.370
     5.65    0.361   0.372   0.337   0.350   0.352   0.344   0.339   0.342   0.352   0.379   0.386   0.382   0.390   0.379   0.391   0.378   0.368   0.343   0.314   0.312   0.331   0.369   0.363   0.338   0.325   0.334   0.352   0.351   0.355   0.346   0.344   0.345   0.347   0.346   0.348
     1.00    0.373   0.360   0.370   0.365   0.351   0.349   0.363   0.368   0.362   0.375   0.366   0.382   0.389   0.393   0.393   0.405   0.370   0.358   0.330   0.345   0.360   0.391   0.366   0.355   0.331   0.349   0.355   0.371   0.379   0.360   0.351   0.347   0.339   0.339   0.351

   Height   Standard deviation at grid points for the v component:
   168.40    0.381   0.379   0.362   0.379   0.376   0.396   0.393   0.386   0.395   0.387   0.366   0.371   0.371   0.381   0.367   0.371   0.389   0.387   0.409   0.409   0.405   0.404   0.396   0.382   0.389   0.382   0.368   0.387   0.398   0.399   0.415   0.409   0.401   0.389   0.364
   163.75    0.400   0.382   0.378   0.390   0.383   0.382   0.392   0.375   0.388   0.394   0.372   0.376   0.383   0.356   0.374   0.383   0.403   0.412   0.385   0.389   0.400   0.410   0.409   0.391   0.388   0.368   0.373   0.382   0.397   0.385   0.377   0.392   0.408   0.399   0.370
   159.10    0.393   0.364   0.381   0.380   0.376   0.377   0.370   0.394   0.394   0.379   0.388   0.374   0.362   0.370   0.380   0.421   0.423   0.401   0.392   0.422   0.447   0.410   0.426   0.394   0.384   0.372   0.374   0.388   0.373   0.377   0.364   0.389   0.384   0.397   0.364
   154.45    0.386   0.374   0.380   0.364   0.353   0.372   0.367   0.386   0.393   0.378   0.384   0.357   0.359   0.359   0.396   0.401   0.398   0.393   0.407   0.430   0.435   0.431   0.416   0.408   0.390   0.398   0.388   0.377   0.373   0.375   0.378   0.372   0.382   0.377   0.388
   149.80    0.385   0.376   0.360   0.365   0.367   0.377   0.391   0.391   0.387   0.387   0.394   0.355   0.340   0.370   0.394   0.402   0.389   0.404   0.438   0.436   0.433   0.426   0.427   0.423   0.398   0.413   0.393   0.392   0.371   0.358   0.364   0.362   0.375   0.394   0.395
   145.15    0.388   0.377   0.354   0.373   0.387   0.369   0.362   0.367   0.376   0.385   0.385   0.368   0.368   0.389   0.376   0.391   0.399   0.397   0.440   0.448   0.458   0.424   0.423   0.425   0.415   0.408   0.385   0.394   0.383   0.360   0.366   0.370   0.381   0.403   0.399
   140.50    0.379   0.382   0.371   0.371   0.386   0.363   0.351   0.349   0.370   0.377   0.388   0.388   0.362   0.366   0.393   0.417   0.402   0.412   0.426   0.451   0.447   0.446   0.460   0.413   0.431   0.419   0.392   0.384   0.381   0.367   0.365   0.383   0.383   0.416   0.404
   135.85    0.378   0.383   0.385   0.373   0.375   0.364   0.359   0.366   0.364   0.378   0.389   0.394   0.390   0.403   0.397   0.402   0.413   0.419   0.437   0.442   0.443   0.468   0.439   0.414   0.421   0.423   0.387   0.397   0.397   0.389   0.380   0.401   0.417   0.396   0.402
   131.20    0.402   0.398   0.397   0.373   0.375   0.362   0.356   0.364   0.362   0.377   0.388   0.382   0.387   0.409   0.402   0.411   0.420   0.440   0.451   0.424   0.429   0.437   0.422   0.410   0.421   0.395   0.367   0.359   0.381   0.374   0.382   0.399   0.410   0.398   0.397
   126.55    0.388   0.418   0.401   0.392   0.384   0.409   0.394   0.389   0.373   0.382   0.374   0.382   0.356   0.385   0.382   0.408   0.405   0.411   0.419   0.417   0.421   0.416   0.399   0.409   0.397   0.368   0.353   0.370   0.378   0.382   0.388   0.406   0.400   0.397   0.399
   121.90    0.433   0.415   0.433   0.412   0.404   0.385   0.404   0.382   0.372   0.367   0.383   0.357   0.364   0.373   0.375   0.381   0.384   0.414   0.418   0.413   0.404   0.415   0.399   0.391   0.401   0.371   0.376   0.372   0.389   0.389   0.393   0.404   0.406   0.392   0.403
   117.25    0.435   0.413   0.439   0.424   0.404   0.403   0.408   0.396   0.389   0.367   0.350   0.356   0.369   0.348   0.384   0.393   0.376   0.391   0.399   0.413   0.389   0.399   0.403   0.384   0.389   0.394   0.379   0.390   0.400   0.397   0.403   0.402   0.396   0.395   0.377
   112.60    0.449   0.428   0.414   0.420   0.430   0.422   0.416   0.382   0.398   0.386   0.369   0.356   0.351   0.363   0.371   0.397   0.378   0.378   0.388   0.402   0.386   0.401   0.389   0.389   0.408   0.395   0.391   0.392   0.374   0.399   0.387   0.398   0.398   0.395   0.363
   107.95    0.442   0.451   0.453   0.436   0.413   0.421   0.416   0.381   0.368   0.379   0.378   0.382   0.383   0.372   0.410   0.379   0.385   0.388   0.384   0.395   0.381   0.383   0.382   0.379   0.384   0.388   0.386   0.391   0.389   0.388   0.380   0.391   0.392   0.393   0.395
   103.30    0.432   0.455   0.435   0.428   0.389   0.420   0.399   0.388   0.398   0.425   0.379   0.386   0.372   0.387   0.383   0.391   0.379   0.393   0.404   0.397   0.400   0.403   0.390   0.394   0.392   0.394   0.399   0.398   0.410   0.394   0.396   0.380   0.369   0.393   0.385
    98.65    0.399   0.415   0.414   0.373   0.384   0.389   0.385   0.396   0.383   0.402   0.390   0.408   0.376   0.379   0.392   0.382   0.404   0.412   0.399   0.410   0.419   0.381   0.393   0.405   0.413   0.398   0.417   0.419   0.450   0.416   0.376   0.384   0.394   0.390   0.385
    94.00    0.430   0.411   0.395   0.350   0.364   0.383   0.396   0.386   0.407   0.410   0.417   0.395   0.387   0.377   0.391   0.396   0.407   0.412   0.393   0.382   0.415   0.389   0.393   0.414   0.395   0.410   0.425   0.436   0.430   0.392   0.379   0.386   0.391   0.381   0.376
    89.35    0.402   0.372   0.361   0.354   0.366   0.369   0.384   0.406   0.419   0.403   0.404   0.408   0.383   0.374   0.395   0.405   0.405   0.401   0.400   0.393   0.408   0.382   0.400   0.420   0.413   0.418   0.423   0.404   0.420   0.423   0.391   0.387   0.385   0.375   0.372
    84.70    0.390   0.377   0.362   0.360   0.389   0.358   0.380   0.402   0.396   0.423   0.410   0.408   0.399   0.388   0.395   0.387   0.402   0.398   0.400   0.380   0.409   0.400   0.418   0.429   0.408   0.421   0.396   0.406   0.396   0.393   0.383   0.382   0.364   0.370   0.385
    80.05    0.383   0.367   0.353   0.362   0.366   0.363   0.362   0.386   0.397   0.405   0.402   0.412   0.406   0.414   0.401   0.392   0.381   0.379   0.397   0.391   0.405   0.424   0.416   0.414   0.435   0.424   0.396   0.397   0.389   0.395   0.392   0.380   0.369   0.395   0.408
    75.40    0.371   0.364   0.360   0.352   0.361   0.373   0.341   0.370   0.393   0.398   0.393   0.400   0.395   0.403   0.396   0.368   0.366   0.370   0.370   0.365   0.389   0.406   0.422   0.421   0.436   0.419   0.415   0.402   0.401   0.408   0.384   0.391   0.380   0.379   0.407
    70.75    0.385   0.381   0.380   0.362   0.361   0.363   0.350   0.341   0.382   0.393   0.399   0.381   0.381   0.376   0.376   0.364   0.381   0.378   0.373   0.385   0.398   0.418   0.407   0.435   0.414   0.406   0.406   0.402   0.398   0.394   0.397   0.389   0.396   0.405   0.399
    66.10    0.397   0.385   0.375   0.381   0.363   0.367   0.357   0.364   0.390   0.400   0.398   0.395   0.368   0.384   0.393   0.379   0.374   0.395   0.392   0.399   0.421   0.418   0.429   0.418   0.420   0.416   0.406   0.409   0.410   0.406   0.389   0.413   0.420   0.395   0.407
    61.45    0.387   0.398   0.370   0.374   0.354   0.385   0.391   0.381   0.409   0.411   0.391   0.394   0.375   0.367   0.383   0.385   0.374   0.375   0.387   0.392   0.404   0.419   0.441   0.431   0.415   0.411   0.398   0.411   0.400   0.405   0.413   0.394   0.417   0.412   0.401
    56.80    0.393   0.378   0.372   0.366   0.381   0.401   0.384   0.390   0.393   0.405   0.393   0.378   0.374   0.379   0.376   0.379   0.380   0.390   0.378   0.375   0.390   0.409   0.431   0.423   0.413   0.404   0.408   0.420   0.434   0.430   0.433   0.416   0.435   0.442   0.421
    52.15    0.393   0.383   0.360   0.362   0.382   0.399   0.399   0.400   0.387   0.392   0.381   0.384   0.381   0.358   0.361   0.357   0.365   0.388   0.386   0.383   0.379   0.390   0.404   0.416   0.424   0.414   0.434   0.448   0.421   0.441   0.428   0.454   0.436   0.426   0.454
    47.50    0.368   0.376   0.357   0.364   0.389   0.393   0.400   0.405   0.376   0.363   0.373   0.354   0.364   0.363   0.369   0.358   0.373   0.369   0.368   0.370   0.372   0.390   0.396   0.400   0.420   0.418   0.431   0.458   0.428   0.441   0.451   0.449   0.426   0.451   0.456
    42.85    0.348   0.340   0.360   0.378   0.385   0.385   0.402   0.385   0.370   0.344   0.383   0.385   0.387   0.368   0.358   0.359   0.359   0.355   0.362   0.368   0.387   0.375   0.395   0.410   0.413   0.418   0.417   0.432   0.459   0.454   0.432   0.415   0.421   0.423   0.442
    38.20    0.348   0.363   0.355   0.370   0.388   0.383   0.387   0.359   0.337   0.356   0.360   0.361   0.365   0.361   0.353   0.358   0.354   0.350   0.358   0.379   0.385   0.405   0.409   0.408   0.412   0.421   0.412   0.424   0.434   0.438   0.428   0.426   0.419   0.417   0.423
    33.55    0.361   0.368   0.397   0.371   0.394   0.384   0.380   0.359   0.344   0.351   0.355   0.348   0.367   0.356   0.352   0.362   0.352   0.367   0.378   0.400   0.404   0.403   0.415   0.410   0.406   0.435   0.409   0.423   0.436   0.419   0.420   0.407   0.448   0.434   0.432
    28.90    0.398   0.387   0.400   0.375   0.390   0.405   0.400   0.392   0.359   0.348   0.347   0.348   0.351   0.345   0.368   0.378   0.361   0.371   0.396   0.397   0.391   0.412   0.419   0.426   0.421   0.431   0.416   0.438   0.464   0.436   0.412   0.439   0.450   0.432   0.422
    24.25    0.395   0.385   0.386   0.385   0.400   0.385   0.386   0.388   0.366   0.359   0.336   0.334   0.354   0.354   0.361   0.376   0.370   0.371   0.387   0.406   0.388   0.394   0.422   0.402   0.431   0.429   0.433   0.445   0.446   0.435   0.417   0.434   0.433   0.397   0.412
    19.60    0.393   0.377   0.373   0.418   0.387   0.403   0.387   0.369   0.354   0.349   0.348   0.360   0.369   0.364   0.372   0.396   0.384   0.378   0.395   0.401   0.392   0.383   0.406   0.427   0.424   0.438   0.448   0.458   0.458   0.461   0.461   0.437   0.439   0.439   0.430
    14.95    0.378   0.379   0.374   0.399   0.422   0.411   0.396   0.366   0.371   0.351   0.366   0.370   0.376   0.370   0.373   0.392   0.380   0.393   0.413   0.392   0.400   0.407   0.410   0.438   0.418   0.418   0.413   0.417   0.439   0.450   0.466   0.443   0.466   0.440   0.433
    10.30    0.377   0.388   0.376   0.386   0.391   0.388   0.391   0.372   0.361   0.362   0.368   0.387   0.371   0.370   0.392   0.384   0.403   0.401   0.405   0.420   0.425   0.406   0.444   0.438   0.446   0.446   0.422   0.427   0.431   0.443   0.456   0.456   0.440   0.418   0.421
     5.65    0.395   0.391   0.372   0.370   0.369   0.349   0.336   0.357   0.358   0.353   0.376   0.384   0.385   0.388   0.388   0.384   0.409   0.437   0.430   0.429   0.408   0.419   0.437   0.423   0.423   0.418   0.433   0.444   0.427   0.431   0.452   0.466   0.434   0.417   0.438
     1.00    0.389   0.377   0.384   0.360   0.355   0.362   0.358   0.360   0.356   0.372   0.365   0.384   0.369   0.375   0.389   0.400   0.415   0.412   0.433   0.415   0.421   0.415   0.425   0.432   0.417   0.407   0.429   0.430   0.414   0.435   0.450   0.439   0.434   0.429   0.434

   Height   Standard deviation at grid points for the w component:
   168.40    0.261   0.261   0.257   0.245   0.241   0.247   0.246   0.245   0.239   0.242   0.241   0.237   0.250   0.240   0.250   0.253   0.257   0.253   0.241   0.232   0.236   0.227   0.230   0.236   0.222   0.233   0.224   0.228   0.234   0.226   0.241   0.232   0.244   0.238   0.242
   163.75    0.259   0.268   0.265   0.251   0.263   0.251   0.242   0.245   0.254   0.250   0.236   0.244   0.245   0.243   0.243   0.245   0.245   0.238   0.235   0.234   0.231   0.234   0.235   0.238   0.237   0.231   0.235   0.229   0.238   0.228   0.229   0.237   0.240   0.242   0.244
   159.10    0.252   0.257   0.250   0.245   0.254   0.243   0.247   0.238   0.245   0.235   0.239   0.247   0.235   0.244   0.243   0.241   0.244   0.248   0.240   0.234   0.240   0.235   0.243   0.240   0.242   0.242   0.230   0.236   0.238   0.241   0.234   0.241   0.245   0.243   0.247
   154.45    0.241   0.242   0.236   0.242   0.244   0.242   0.248   0.253   0.246   0.241   0.234   0.241   0.242   0.249   0.242   0.247   0.245   0.248   0.236   0.232   0.236   0.249   0.248   0.250   0.233   0.244   0.225   0.226   0.227   0.235   0.253   0.231   0.234   0.239   0.239
   149.80    0.232   0.238   0.234   0.231   0.238   0.233   0.235   0.242   0.245   0.239   0.238   0.238   0.249   0.255   0.255   0.246   0.246   0.243   0.245   0.243   0.243   0.235   0.248   0.233   0.233   0.235   0.231   0.227   0.228   0.235   0.246   0.240   0.234   0.244   0.241
   145.15    0.242   0.249   0.238   0.227   0.223   0.229   0.236   0.242   0.247   0.244   0.231   0.236   0.249   0.257   0.255   0.252   0.246   0.240   0.246   0.246   0.248   0.235   0.233   0.232   0.230   0.226   0.237   0.227   0.215   0.237   0.233   0.235   0.238   0.247   0.236
   140.50    0.247   0.250   0.245   0.221   0.221   0.223   0.235   0.239   0.226   0.235   0.237   0.236   0.248   0.251   0.248   0.251   0.243   0.240   0.243   0.242   0.241   0.225   0.231   0.230   0.229   0.233   0.228   0.234   0.234   0.238   0.239   0.238   0.235   0.248   0.246
   135.85    0.243   0.237   0.237   0.224   0.223   0.222   0.222   0.241   0.236   0.231   0.229   0.237   0.252   0.246   0.244   0.246   0.237   0.240   0.245   0.242   0.245   0.241   0.234   0.225   0.226   0.230   0.228   0.225   0.231   0.226   0.224   0.232   0.235   0.234   0.239
   131.20    0.236   0.242   0.236   0.228   0.229   0.222   0.228   0.230   0.225   0.229   0.233   0.240   0.254   0.253   0.249   0.243   0.234   0.233   0.244   0.236   0.234   0.241   0.244   0.229   0.224   0.225   0.225   0.223   0.228   0.221   0.229   0.225   0.231   0.233   0.236
   126.55    0.247   0.247   0.247   0.237   0.238   0.229   0.237   0.233   0.237   0.236   0.240   0.237   0.250   0.245   0.241   0.238   0.242   0.242   0.235   0.235   0.235   0.232   0.237   0.235   0.230   0.224   0.221   0.225   0.219   0.230   0.230   0.237   0.227   0.232   0.229
   121.90    0.251   0.251   0.253   0.236   0.242   0.237   0.234   0.233   0.227   0.238   0.235   0.248   0.245   0.245   0.246   0.238   0.247   0.242   0.240   0.237   0.229   0.226   0.232   0.242   0.237   0.231   0.237   0.223   0.230   0.232   0.239   0.228   0.238   0.232   0.224
   117.25    0.241   0.247   0.259   0.244   0.246   0.241   0.234   0.235   0.235   0.236   0.240   0.239   0.249   0.243   0.234   0.227   0.246   0.241   0.245   0.236   0.231   0.233   0.233   0.234   0.231   0.231   0.223   0.231   0.242   0.238   0.245   0.241   0.231   0.236   0.231
   112.60    0.249   0.246   0.241   0.242   0.232   0.242   0.242   0.245   0.241   0.235   0.238   0.247   0.242   0.239   0.236   0.244   0.235   0.235   0.247   0.243   0.227   0.234   0.230   0.237   0.242   0.230   0.236   0.241   0.229   0.231   0.226   0.237   0.245   0.238   0.226
   107.95    0.250   0.238   0.236   0.242   0.245   0.244   0.245   0.230   0.244   0.243   0.239   0.243   0.252   0.244   0.244   0.256   0.244   0.235   0.244   0.243   0.238   0.235   0.231   0.235   0.252   0.241   0.232   0.233   0.222   0.229   0.228   0.236   0.247   0.243   0.233
   103.30    0.245   0.242   0.240   0.238   0.240   0.239   0.239   0.232   0.238   0.237   0.236   0.233   0.247   0.253   0.250   0.248   0.241   0.239   0.235   0.243   0.242   0.252   0.243   0.245   0.246   0.239   0.234   0.233   0.224   0.219   0.232   0.236   0.238   0.233   0.242
    98.65    0.246   0.245   0.241   0.242   0.233   0.232   0.227   0.234   0.234   0.234   0.233   0.239   0.242   0.248   0.245   0.241   0.239   0.234   0.234   0.240   0.255   0.246   0.244   0.250   0.239   0.237   0.232   0.231   0.222   0.217   0.220   0.227   0.230   0.239   0.243
    94.00    0.247   0.236   0.240   0.240   0.243   0.232   0.235   0.239   0.238   0.233   0.231   0.226   0.235   0.240   0.249   0.241   0.235   0.233   0.236   0.239   0.238   0.245   0.238   0.235   0.233   0.230   0.240   0.238   0.216   0.218   0.222   0.229   0.227   0.228   0.235
    89.35    0.232   0.233   0.231   0.231   0.244   0.244   0.242   0.240   0.231   0.238   0.234   0.239   0.232   0.239   0.241   0.241   0.240   0.233   0.234   0.226   0.237   0.238   0.235   0.231   0.234   0.232   0.234   0.233   0.229   0.226   0.224   0.228   0.222   0.228   0.235
    84.70    0.239   0.233   0.234   0.231   0.239   0.247   0.251   0.249   0.238   0.239   0.223   0.233   0.229   0.226   0.235   0.245   0.252   0.238   0.231   0.227   0.238   0.245   0.232   0.237   0.229   0.232   0.232   0.223   0.226   0.233   0.233   0.224   0.229   0.235   0.229
    80.05    0.241   0.235   0.233   0.238   0.236   0.237   0.240   0.248   0.249   0.236   0.234   0.221   0.233   0.234   0.225   0.229   0.241   0.235   0.225   0.234   0.231   0.234   0.232   0.231   0.235   0.231   0.231   0.230   0.232   0.227   0.225   0.229   0.231   0.233   0.229
    75.40    0.234   0.232   0.232   0.227   0.230   0.234   0.242   0.241   0.240   0.244   0.230   0.233   0.228   0.224   0.229   0.234   0.228   0.228   0.230   0.236   0.232   0.242   0.220   0.231   0.239   0.229   0.235   0.237   0.227   0.224   0.230   0.230   0.229   0.230   0.234
    70.75    0.235   0.229   0.235   0.228   0.240   0.239   0.235   0.232   0.232   0.239   0.232   0.217   0.212   0.212   0.226   0.224   0.226   0.233   0.232   0.234   0.242   0.242   0.229   0.233   0.228   0.230   0.230   0.229   0.236   0.231   0.217   0.219   0.224   0.222   0.235
    66.10    0.230   0.230   0.234   0.238   0.250   0.249   0.235   0.233   0.238   0.225   0.229   0.224   0.217   0.219   0.216   0.215   0.222   0.231   0.236   0.245   0.241   0.236   0.219   0.222   0.233   0.231   0.233   0.238   0.235   0.229   0.224   0.224   0.230   0.228   0.234
    61.45    0.229   0.233   0.239   0.237   0.244   0.244   0.241   0.232   0.235   0.218   0.225   0.221   0.218   0.223   0.217   0.220   0.222   0.226   0.230   0.242   0.240   0.220   0.222   0.236   0.228   0.227   0.231   0.236   0.239   0.237   0.228   0.218   0.232   0.231   0.222
    56.80    0.234   0.243   0.246   0.236   0.240   0.248   0.244   0.235   0.236   0.224   0.226   0.233   0.225   0.228   0.226   0.219   0.223   0.228   0.227   0.227   0.230   0.223   0.221   0.233   0.226   0.234   0.238   0.235   0.237   0.236   0.229   0.233   0.231   0.226   0.220
    52.15    0.258   0.261   0.249   0.246   0.245   0.240   0.239   0.242   0.241   0.238   0.224   0.230   0.244   0.230   0.224   0.219   0.225   0.225   0.230   0.228   0.223   0.228   0.237   0.231   0.233   0.242   0.238   0.237   0.238   0.238   0.234   0.232   0.229   0.220   0.212
    47.50    0.245   0.250   0.251   0.243   0.239   0.232   0.239   0.242   0.246   0.242   0.232   0.227   0.242   0.230   0.230   0.229   0.235   0.234   0.233   0.236   0.228   0.240   0.236   0.245   0.246   0.236   0.237   0.243   0.245   0.239   0.235   0.231   0.226   0.221   0.228
    42.85    0.237   0.238   0.240   0.231   0.230   0.240   0.245   0.237   0.249   0.231   0.230   0.230   0.232   0.230   0.239   0.244   0.237   0.243   0.242   0.238   0.234   0.239   0.235   0.241   0.250   0.242   0.239   0.236   0.240   0.244   0.236   0.231   0.235   0.232   0.232
    38.20    0.236   0.230   0.242   0.241   0.229   0.245   0.246   0.237   0.238   0.239   0.232   0.235   0.225   0.233   0.237   0.239   0.241   0.241   0.244   0.236   0.234   0.234   0.237   0.250   0.244   0.235   0.230   0.236   0.222   0.238   0.234   0.232   0.237   0.239   0.230
    33.55    0.227   0.226   0.239   0.246   0.236   0.245   0.250   0.242   0.235   0.225   0.241   0.242   0.230   0.222   0.235   0.238   0.247   0.233   0.238   0.238   0.228   0.238   0.236   0.239   0.236   0.234   0.239   0.228   0.225   0.232   0.234   0.226   0.232   0.234   0.226
    28.90    0.229   0.236   0.234   0.242   0.239   0.248   0.255   0.252   0.235   0.233   0.239   0.240   0.240   0.232   0.234   0.237   0.239   0.244   0.241   0.237   0.239   0.240   0.246   0.231   0.222   0.227   0.238   0.225   0.233   0.231   0.239   0.230   0.233   0.244   0.235
    24.25    0.224   0.235   0.236   0.237   0.237   0.249   0.250   0.245   0.242   0.237   0.234   0.231   0.237   0.221   0.226   0.229   0.230   0.244   0.239   0.231   0.235   0.241   0.240   0.229   0.232   0.232   0.232   0.237   0.231   0.239   0.237   0.237   0.244   0.234   0.239
    19.60    0.233   0.232   0.230   0.236   0.233   0.238   0.235   0.231   0.239   0.242   0.237   0.224   0.227   0.229   0.212   0.230   0.234   0.239   0.240   0.237   0.248   0.242   0.243   0.239   0.233   0.233   0.228   0.233   0.242   0.236   0.237   0.238   0.239   0.237   0.247
    14.95    0.225   0.230   0.233   0.231   0.233   0.236   0.233   0.233   0.231   0.236   0.231   0.227   0.229   0.227   0.217   0.222   0.229   0.233   0.248   0.242   0.244   0.233   0.237   0.244   0.234   0.230   0.233   0.232   0.238   0.232   0.236   0.235   0.242   0.242   0.238
    10.30    0.224   0.227   0.232   0.222   0.233   0.237   0.224   0.237   0.239   0.238   0.236   0.234   0.231   0.222   0.224   0.226   0.225   0.232   0.242   0.250   0.241   0.238   0.231   0.240   0.241   0.249   0.232   0.225   0.235   0.229   0.234   0.232   0.232   0.237   0.234
     5.65    0.231   0.226   0.231   0.229   0.227   0.223   0.233   0.245   0.247   0.254   0.252   0.239   0.228   0.230   0.233   0.234   0.237   0.241   0.229   0.249   0.243   0.246   0.238   0.240   0.249   0.243   0.241   0.233   0.240   0.235   0.235   0.222   0.221   0.229   0.231
     1.00    0.237   0.236   0.232   0.234   0.231   0.228   0.235   0.245   0.246   0.252   0.253   0.239   0.239   0.241   0.242   0.235   0.240   0.247   0.242   0.239   0.244   0.242   0.241   0.238   0.249   0.244   0.240   0.239   0.242   0.237   0.241   0.228   0.227   0.221   0.221

   Mean standard deviation across all grid points:
      u component:    0.367 m/s
      v component:    0.395 m/s
      w component:    0.236 m/s


U-component (X) statistics from the interpolated hub point:

   Mean =   9.9913 m/s
   TI   =   3.6098 %


Processing complete.  6067.1 CPU seconds used.
