
This summary file was generated by TurbSim (from OpenFAST-v3.5.3) on 20-Apr-2025 at 06:22:23.


Runtime Options:

 376932526  Random seed #1
    RANLUX  Type of random number generator
         F  Output binary HH turbulence parameters?
         F  Output formatted turbulence parameters?
         F  Output AeroDyn HH files?
         T  Output AeroDyn FF files?
         F  Output BLADED FF files?
         F  Output tower data?
         F  Output HAWC FF files?
         F  Output formatted FF files?
         T  Output coherent turbulence time step file?
 0 -  NONE  IEC turbulence models scaled to exact specified standard deviation


Turbine/Model Specifications:

        37  Vertical grid-point matrix dimension
        35  Horizontal grid-point matrix dimension
     0.250  Time step [seconds]
   900.000  Analysis time [seconds]
   900.000  Usable output time [seconds]
    89.350  Hub height [m]
   167.400  Grid height [m]
   158.100  Grid width [m]
     0.000  Vertical flow angle [degrees]
     0.000  Horizontal flow angle [degrees]


Meteorological Boundary Conditions:

    TIMESR  User-input time series spectral model
       N/A  IEC standard
       N/A  IEC turbulence characteristic
       N/A  IEC turbulence type
       N/A  IEC Extreme Turbulence Model (ETM) "c" parameter [m/s]
       PL   Wind profile type
    90.000  Reference height [m]
    10.000  Reference wind speed [m/s]
       N/A  Jet height [m]
     0.120  Power law exponent
     0.030  Surface roughness length [m]


Non-IEC Meteorological Boundary Conditions:

    45.000  Site latitude [degrees]
     0.050  Gradient Richardson number
     0.480  Friction or shear velocity [m/s]
       N/A  Mixing layer depth [m]
       N/A  Mean hub u'w' Reynolds stress
       N/A  Mean hub u'v' Reynolds stress
       N/A  Mean hub v'w' Reynolds stress


Spatial Coherence Models:

       IEC  u-component coherence model
       IEC  v-component coherence model
       IEC  w-component coherence model
(   12.000, 0.353E-03)  u-component coherence parameters
(   12.000, 0.353E-03)  v-component coherence parameters
(   12.000, 0.353E-03)  w-component coherence parameters
       N/A  Coherence exponent


Coherent Turbulence Scaling Parameters:

.\EventData
            Name of the path containing the coherent turbulence data files
       les  Type of coherent turbulence data files
     1.000  Disturbance scale (ratio of wave height to rotor diameter)
     0.500  Fractional location of tower centerline from right
     0.500  Fractional location of hub height from the bottom of the dataset
    30.000  Minimum start time for coherent structures [seconds]


Profiles from User-Defined Time-Series Input:

  Height   Wind Speed   Horizontal Angle   Vertical Angle
   (m)        (m/s)          (deg)              (deg)    
  ------   ----------   ----------------   --------------
   94.00      10.00          -0.63                0.00


You have requested that the following file(s) be generated:

   /kfs3/scratch/agupta/Projects/RL_Incubator/FinalRuns_Veer/Seed4/./FFSim_Seed4/Cond00_v10.0_PL0.12_TI5.0/Case1_wdirp02/Seed_6/TurbSim/HighT11.bts (AeroDyn/TurbSim full-field wind file)


Turbulence Simulation Scaling Parameter Summary:

   Turbulence model used                            =  User-input time series
   Gradient Richardson number                       =    0.050
   Monin-Obukhov (M-O) z/L parameter                =    0.067
   Monin-Obukhov (M-O) length scale                 = 1340.250 m
   Mean wind speed at hub height                    =    9.991 m/s

   Wind profile type                                =  Power law
   Power law exponent                               =    0.120
   Mean shear across rotor disk                     =    0.019 (m/s)/m
   Assumed rotor diameter                           =  158.100 m
   Surface roughness length                         =    0.030 m

   Nyquist frequency of turbulent wind field        =    2.000 Hz

   Number of time steps in the FFT                  =     3600
   Number of time steps output                      =     3600
   Number of points simulated                       =     1296


Mean Flow Angles:

   Vertical   =   0.0 degrees
   Horizontal =   0.0 degrees

Mean Wind Speed Profile:

   Height    Wind Speed   Horizontal Angle  Vertical Angle  U-comp (X)   V-comp (Y)   W-comp (Z)
     (m)        (m/s)         (degrees)       (degrees)       (m/s)        (m/s)        (m/s)   
   ------    ----------   ----------------  --------------  ----------   ----------   ----------
    168.4       10.78            0.00            0.00         10.78         0.00         0.00
    163.7       10.74            0.00            0.00         10.74         0.00         0.00
    159.1       10.71            0.00            0.00         10.71         0.00         0.00
    154.4       10.67            0.00            0.00         10.67         0.00         0.00
    149.8       10.63            0.00            0.00         10.63         0.00         0.00
    145.1       10.59            0.00            0.00         10.59         0.00         0.00
    140.5       10.55            0.00            0.00         10.55         0.00         0.00
    135.8       10.51            0.00            0.00         10.51         0.00         0.00
    131.2       10.46            0.00            0.00         10.46         0.00         0.00
    126.5       10.42            0.00            0.00         10.42         0.00         0.00
    121.9       10.37            0.00            0.00         10.37         0.00         0.00
    117.2       10.32            0.00            0.00         10.32         0.00         0.00
    112.6       10.27            0.00            0.00         10.27         0.00         0.00
    107.9       10.22            0.00            0.00         10.22         0.00         0.00
    103.3       10.17            0.00            0.00         10.17         0.00         0.00
     98.6       10.11            0.00            0.00         10.11         0.00         0.00
     94.0       10.05            0.00            0.00         10.05         0.00         0.00
     89.3        9.99            0.00            0.00          9.99         0.00         0.00
     84.7        9.93            0.00            0.00          9.93         0.00         0.00
     80.0        9.86            0.00            0.00          9.86         0.00         0.00
     75.4        9.79            0.00            0.00          9.79         0.00         0.00
     70.7        9.72            0.00            0.00          9.72         0.00         0.00
     66.1        9.64            0.00            0.00          9.64         0.00         0.00
     61.4        9.55            0.00            0.00          9.55         0.00         0.00
     56.8        9.46            0.00            0.00          9.46         0.00         0.00
     52.1        9.37            0.00            0.00          9.37         0.00         0.00
     47.5        9.26            0.00            0.00          9.26         0.00         0.00
     42.8        9.15            0.00            0.00          9.15         0.00         0.00
     38.2        9.02            0.00            0.00          9.02         0.00         0.00
     33.5        8.88            0.00            0.00          8.88         0.00         0.00
     28.9        8.73            0.00            0.00          8.73         0.00         0.00
     24.2        8.54            0.00            0.00          8.54         0.00         0.00
     19.6        8.33            0.00            0.00          8.33         0.00         0.00
     14.9        8.06            0.00            0.00          8.06         0.00         0.00
     10.3        7.71            0.00            0.00          7.71         0.00         0.00
      5.6        7.17            0.00            0.00          7.17         0.00         0.00
      1.0        5.83            0.00            0.00          5.83         0.00         0.00


Harvested Random Seeds after Generation of the Random Numbers:

     65026800 K 1
            0 K 2


Hub-Height Simulated Turbulence Statistical Summary:

   Type of Wind        Min (m/s)   Mean (m/s)    Max (m/s)  Sigma (m/s)       TI (%)
   ----------------    ---------   ----------    ---------  -----------       ------
   Longitudinal (u)         8.48         9.99        11.87        0.537        5.372
   Lateral (v)             -1.36        -0.00         1.53        0.447        4.472
   Vertical (w)            -0.76        -0.00         1.01        0.238        2.383
   U component              8.48         9.99        11.87        0.537        5.372
   V component             -1.36        -0.00         1.53        0.447        4.472
   W component             -0.76        -0.00         1.01        0.238        2.383
   Horizontal (U&V)         8.48        10.00        11.87        0.537        5.368
   Total                    8.48        10.00        11.87        0.537        5.364

                       Min Reynolds     Mean Reynolds    Max Reynolds    Correlation
   Product             Stress (m/s)^2   Stress (m/s)^2   Stress (m/s)^2  Coefficient
   ----------------    --------------   --------------   --------------  -----------
   u'w'                     -1.045            -0.012             0.680        -0.092
   u'v'                     -1.571             0.005             1.286         0.021
   v'w'                     -0.510             0.007             0.504         0.066


   Friction Velocity (Ustar)  =      0.109 m/s
   Maximum Instantaneous TKE  =      1.909 (m/s)^2
   Maximum Instantaneous CTKE =      0.796 (m/s)^2


Grid Point Variance Summary:

   Y-coord  -79.05  -74.40  -69.75  -65.10  -60.45  -55.80  -51.15  -46.50  -41.85  -37.20  -32.55  -27.90  -23.25  -18.60  -13.95   -9.30   -4.65    0.00    4.65    9.30   13.95   18.60   23.25   27.90   32.55   37.20   41.85   46.50   51.15   55.80   60.45   65.10   69.75   74.40   79.05

   Height   Standard deviation at grid points for the u component:
   168.40    0.530   0.466   0.472   0.489   0.461   0.466   0.499   0.517   0.484   0.514   0.487   0.457   0.475   0.478   0.479   0.440   0.484   0.474   0.475   0.491   0.522   0.528   0.524   0.542   0.521   0.516   0.569   0.524   0.535   0.501   0.464   0.489   0.463   0.476   0.484
   163.75    0.522   0.490   0.499   0.482   0.469   0.466   0.485   0.472   0.474   0.476   0.453   0.444   0.481   0.502   0.464   0.464   0.468   0.476   0.482   0.470   0.488   0.531   0.543   0.554   0.530   0.535   0.571   0.557   0.534   0.525   0.490   0.505   0.479   0.484   0.497
   159.10    0.536   0.531   0.513   0.460   0.460   0.454   0.455   0.477   0.494   0.461   0.466   0.460   0.477   0.508   0.492   0.490   0.468   0.465   0.486   0.470   0.504   0.531   0.538   0.548   0.567   0.551   0.570   0.594   0.558   0.524   0.525   0.515   0.521   0.536   0.553
   154.45    0.509   0.523   0.471   0.448   0.427   0.439   0.432   0.453   0.498   0.458   0.447   0.465   0.468   0.482   0.488   0.492   0.488   0.515   0.468   0.494   0.501   0.545   0.559   0.540   0.563   0.587   0.561   0.610   0.611   0.578   0.536   0.510   0.550   0.582   0.569
   149.80    0.490   0.512   0.474   0.468   0.461   0.482   0.463   0.455   0.470   0.462   0.465   0.476   0.516   0.500   0.465   0.479   0.478   0.511   0.483   0.492   0.506   0.538   0.575   0.568   0.616   0.587   0.582   0.599   0.625   0.590   0.556   0.582   0.623   0.573   0.529
   145.15    0.467   0.486   0.474   0.478   0.473   0.466   0.479   0.466   0.461   0.450   0.473   0.477   0.483   0.523   0.481   0.482   0.497   0.496   0.507   0.520   0.532   0.537   0.572   0.576   0.595   0.582   0.567   0.607   0.595   0.597   0.578   0.567   0.598   0.566   0.559
   140.50    0.452   0.462   0.452   0.476   0.478   0.481   0.498   0.465   0.482   0.457   0.471   0.502   0.474   0.492   0.530   0.531   0.530   0.555   0.599   0.572   0.572   0.530   0.544   0.558   0.572   0.585   0.549   0.580   0.586   0.590   0.586   0.587   0.564   0.560   0.563
   135.85    0.427   0.443   0.437   0.448   0.451   0.487   0.491   0.467   0.455   0.452   0.458   0.467   0.466   0.502   0.514   0.529   0.517   0.545   0.578   0.604   0.585   0.564   0.535   0.541   0.556   0.553   0.565   0.537   0.577   0.586   0.588   0.556   0.561   0.534   0.510
   131.20    0.460   0.482   0.439   0.429   0.436   0.439   0.462   0.471   0.463   0.459   0.441   0.452   0.446   0.452   0.507   0.519   0.480   0.514   0.549   0.579   0.557   0.583   0.570   0.555   0.586   0.576   0.552   0.525   0.545   0.576   0.551   0.544   0.536   0.576   0.508
   126.55    0.457   0.454   0.411   0.431   0.445   0.438   0.453   0.482   0.484   0.442   0.460   0.441   0.475   0.477   0.530   0.545   0.523   0.511   0.533   0.536   0.554   0.588   0.594   0.620   0.638   0.588   0.567   0.536   0.539   0.560   0.552   0.533   0.524   0.542   0.496
   121.90    0.483   0.470   0.453   0.451   0.453   0.457   0.459   0.491   0.520   0.479   0.471   0.461   0.457   0.524   0.523   0.532   0.521   0.485   0.517   0.561   0.573   0.576   0.583   0.596   0.628   0.596   0.610   0.593   0.597   0.573   0.561   0.537   0.506   0.517   0.505
   117.25    0.454   0.437   0.458   0.446   0.453   0.461   0.468   0.491   0.494   0.496   0.500   0.498   0.501   0.554   0.554   0.529   0.562   0.566   0.581   0.570   0.569   0.563   0.586   0.610   0.633   0.631   0.613   0.608   0.587   0.591   0.569   0.551   0.540   0.569   0.529
   112.60    0.461   0.440   0.444   0.469   0.465   0.453   0.471   0.506   0.490   0.471   0.503   0.490   0.492   0.527   0.564   0.552   0.575   0.607   0.598   0.576   0.586   0.546   0.559   0.598   0.610   0.637   0.587   0.589   0.569   0.583   0.571   0.529   0.518   0.501   0.519
   107.95    0.470   0.440   0.482   0.476   0.441   0.454   0.504   0.523   0.499   0.473   0.497   0.503   0.521   0.519   0.522   0.571   0.602   0.593   0.577   0.567   0.585   0.528   0.542   0.594   0.585   0.600   0.605   0.579   0.560   0.534   0.512   0.508   0.468   0.519   0.483
   103.30    0.459   0.454   0.459   0.472   0.472   0.498   0.513   0.531   0.480   0.474   0.505   0.506   0.566   0.523   0.523   0.564   0.592   0.573   0.596   0.608   0.569   0.550   0.522   0.557   0.579   0.591   0.573   0.557   0.557   0.537   0.512   0.470   0.487   0.519   0.512
    98.65    0.484   0.477   0.468   0.477   0.503   0.505   0.499   0.496   0.502   0.491   0.481   0.504   0.549   0.557   0.547   0.567   0.565   0.577   0.602   0.636   0.582   0.586   0.560   0.524   0.555   0.610   0.558   0.563   0.528   0.544   0.507   0.492   0.497   0.477   0.505
    94.00    0.474   0.483   0.449   0.487   0.527   0.509   0.519   0.487   0.484   0.460   0.456   0.493   0.480   0.525   0.497   0.502   0.542   0.579   0.575   0.603   0.590   0.610   0.612   0.541   0.603   0.614   0.616   0.585   0.520   0.517   0.501   0.511   0.467   0.482   0.487
    89.35    0.423   0.442   0.463   0.484   0.485   0.476   0.480   0.465   0.469   0.442   0.447   0.454   0.470   0.459   0.501   0.499   0.522   0.537   0.586   0.589   0.625   0.629   0.600   0.579   0.587   0.618   0.593   0.581   0.523   0.535   0.522   0.515   0.483   0.496   0.473
    84.70    0.424   0.429   0.462   0.480   0.457   0.467   0.467   0.464   0.456   0.432   0.440   0.454   0.453   0.452   0.485   0.512   0.495   0.532   0.558   0.614   0.624   0.629   0.562   0.592   0.623   0.603   0.614   0.598   0.557   0.523   0.496   0.497   0.481   0.464   0.467
    80.05    0.437   0.425   0.443   0.456   0.482   0.493   0.487   0.447   0.434   0.457   0.454   0.457   0.458   0.483   0.507   0.489   0.509   0.493   0.554   0.596   0.626   0.610   0.563   0.574   0.609   0.635   0.599   0.587   0.565   0.528   0.515   0.513   0.476   0.439   0.412
    75.40    0.450   0.462   0.475   0.456   0.456   0.480   0.464   0.441   0.423   0.454   0.451   0.461   0.454   0.487   0.469   0.505   0.503   0.519   0.565   0.592   0.577   0.599   0.580   0.560   0.579   0.635   0.630   0.568   0.603   0.549   0.575   0.498   0.451   0.435   0.423
    70.75    0.504   0.500   0.490   0.453   0.447   0.435   0.486   0.435   0.435   0.452   0.456   0.456   0.503   0.517   0.511   0.535   0.507   0.533   0.542   0.565   0.550   0.574   0.555   0.509   0.575   0.610   0.649   0.587   0.580   0.560   0.582   0.483   0.453   0.440   0.429
    66.10    0.528   0.498   0.491   0.469   0.453   0.421   0.479   0.476   0.467   0.479   0.489   0.465   0.503   0.541   0.536   0.550   0.570   0.585   0.572   0.553   0.594   0.567   0.566   0.566   0.533   0.554   0.599   0.596   0.528   0.571   0.547   0.507   0.470   0.459   0.461
    61.45    0.517   0.514   0.518   0.504   0.446   0.414   0.455   0.462   0.486   0.493   0.504   0.533   0.530   0.525   0.552   0.552   0.579   0.604   0.597   0.609   0.574   0.576   0.587   0.590   0.553   0.566   0.579   0.590   0.541   0.510   0.533   0.483   0.487   0.487   0.490
    56.80    0.520   0.538   0.514   0.494   0.484   0.418   0.427   0.466   0.474   0.527   0.525   0.505   0.537   0.501   0.529   0.538   0.542   0.557   0.589   0.595   0.541   0.575   0.588   0.605   0.573   0.561   0.567   0.574   0.550   0.536   0.533   0.506   0.502   0.463   0.477
    52.15    0.524   0.519   0.527   0.516   0.480   0.456   0.468   0.485   0.484   0.529   0.517   0.510   0.520   0.516   0.560   0.526   0.515   0.515   0.556   0.571   0.575   0.567   0.593   0.604   0.554   0.547   0.571   0.548   0.515   0.530   0.532   0.515   0.498   0.466   0.475
    47.50    0.516   0.514   0.518   0.511   0.492   0.492   0.496   0.506   0.510   0.534   0.509   0.495   0.492   0.522   0.559   0.561   0.524   0.556   0.559   0.554   0.573   0.600   0.564   0.552   0.544   0.532   0.566   0.532   0.517   0.516   0.521   0.521   0.506   0.480   0.470
    42.85    0.512   0.527   0.524   0.508   0.510   0.485   0.480   0.508   0.515   0.493   0.500   0.502   0.512   0.538   0.546   0.549   0.519   0.567   0.613   0.574   0.581   0.555   0.538   0.562   0.571   0.547   0.551   0.560   0.551   0.529   0.546   0.521   0.512   0.498   0.511
    38.20    0.485   0.507   0.535   0.487   0.464   0.453   0.468   0.497   0.485   0.459   0.470   0.498   0.519   0.515   0.513   0.509   0.536   0.556   0.582   0.555   0.578   0.595   0.587   0.575   0.599   0.595   0.578   0.564   0.567   0.562   0.556   0.525   0.503   0.489   0.488
    33.55    0.488   0.515   0.508   0.498   0.479   0.499   0.469   0.440   0.432   0.464   0.460   0.477   0.496   0.500   0.475   0.494   0.520   0.568   0.537   0.539   0.534   0.546   0.548   0.533   0.577   0.598   0.558   0.556   0.593   0.579   0.569   0.531   0.511   0.495   0.500
    28.90    0.470   0.508   0.460   0.491   0.487   0.490   0.467   0.437   0.417   0.445   0.456   0.465   0.493   0.499   0.544   0.515   0.499   0.527   0.514   0.512   0.521   0.534   0.522   0.504   0.511   0.572   0.583   0.577   0.580   0.620   0.611   0.548   0.526   0.518   0.479
    24.25    0.476   0.479   0.471   0.502   0.502   0.517   0.509   0.480   0.438   0.438   0.433   0.459   0.489   0.513   0.535   0.508   0.506   0.519   0.491   0.504   0.483   0.518   0.501   0.498   0.519   0.546   0.544   0.564   0.556   0.601   0.579   0.550   0.518   0.512   0.499
    19.60    0.489   0.486   0.481   0.459   0.494   0.499   0.509   0.505   0.454   0.471   0.467   0.502   0.491   0.565   0.538   0.506   0.516   0.511   0.495   0.512   0.522   0.484   0.489   0.485   0.515   0.550   0.554   0.563   0.590   0.594   0.598   0.545   0.559   0.539   0.524
    14.95    0.533   0.478   0.460   0.447   0.505   0.510   0.529   0.527   0.511   0.481   0.467   0.494   0.530   0.556   0.551   0.531   0.540   0.499   0.491   0.512   0.543   0.499   0.473   0.483   0.508   0.545   0.582   0.536   0.566   0.571   0.551   0.519   0.535   0.504   0.497
    10.30    0.525   0.495   0.492   0.504   0.500   0.472   0.512   0.505   0.496   0.483   0.489   0.510   0.549   0.583   0.588   0.539   0.534   0.535   0.520   0.527   0.528   0.500   0.483   0.478   0.489   0.546   0.530   0.524   0.534   0.535   0.508   0.543   0.519   0.511   0.485
     5.65    0.539   0.497   0.480   0.452   0.474   0.470   0.503   0.524   0.517   0.485   0.499   0.515   0.548   0.578   0.517   0.521   0.511   0.500   0.499   0.504   0.535   0.502   0.496   0.470   0.496   0.524   0.536   0.525   0.508   0.525   0.535   0.529   0.510   0.531   0.530
     1.00    0.527   0.512   0.506   0.495   0.498   0.500   0.523   0.544   0.524   0.514   0.498   0.498   0.534   0.502   0.490   0.494   0.504   0.508   0.526   0.515   0.548   0.559   0.531   0.521   0.496   0.489   0.502   0.484   0.502   0.507   0.512   0.527   0.546   0.541   0.519

   Height   Standard deviation at grid points for the v component:
   168.40    0.384   0.386   0.406   0.421   0.414   0.422   0.434   0.434   0.392   0.354   0.363   0.362   0.363   0.340   0.353   0.374   0.372   0.383   0.402   0.380   0.373   0.379   0.389   0.406   0.395   0.386   0.356   0.368   0.393   0.388   0.392   0.412   0.440   0.433   0.415
   163.75    0.391   0.398   0.397   0.404   0.400   0.390   0.406   0.419   0.406   0.363   0.356   0.373   0.367   0.365   0.376   0.359   0.357   0.361   0.387   0.383   0.372   0.367   0.366   0.379   0.364   0.358   0.364   0.369   0.376   0.380   0.388   0.422   0.431   0.422   0.415
   159.10    0.381   0.394   0.386   0.366   0.375   0.386   0.377   0.399   0.397   0.377   0.368   0.368   0.365   0.362   0.361   0.366   0.361   0.349   0.371   0.374   0.369   0.361   0.356   0.363   0.371   0.355   0.348   0.359   0.364   0.387   0.395   0.405   0.432   0.421   0.424
   154.45    0.374   0.372   0.367   0.389   0.376   0.363   0.367   0.380   0.376   0.376   0.376   0.350   0.365   0.379   0.366   0.369   0.365   0.351   0.352   0.351   0.342   0.354   0.358   0.369   0.367   0.374   0.371   0.387   0.375   0.385   0.396   0.392   0.419   0.410   0.426
   149.80    0.368   0.367   0.378   0.390   0.359   0.385   0.375   0.380   0.368   0.370   0.365   0.350   0.360   0.384   0.378   0.390   0.361   0.352   0.351   0.357   0.345   0.344   0.367   0.377   0.375   0.376   0.394   0.394   0.396   0.398   0.402   0.394   0.390   0.407   0.413
   145.15    0.385   0.389   0.375   0.371   0.352   0.359   0.374   0.369   0.375   0.376   0.386   0.384   0.382   0.363   0.369   0.386   0.372   0.378   0.364   0.368   0.364   0.377   0.390   0.378   0.366   0.382   0.382   0.375   0.407   0.419   0.400   0.402   0.400   0.384   0.413
   140.50    0.409   0.381   0.390   0.375   0.352   0.359   0.361   0.377   0.416   0.395   0.386   0.371   0.371   0.366   0.385   0.399   0.382   0.363   0.357   0.367   0.394   0.428   0.412   0.414   0.390   0.399   0.394   0.390   0.408   0.418   0.426   0.393   0.406   0.422   0.385
   135.85    0.391   0.406   0.394   0.396   0.371   0.357   0.366   0.404   0.405   0.430   0.403   0.373   0.375   0.392   0.416   0.403   0.399   0.403   0.392   0.414   0.413   0.430   0.440   0.439   0.431   0.408   0.393   0.392   0.405   0.419   0.416   0.405   0.419   0.402   0.410
   131.20    0.377   0.369   0.400   0.390   0.395   0.392   0.391   0.411   0.408   0.419   0.399   0.401   0.400   0.403   0.410   0.427   0.419   0.404   0.413   0.434   0.426   0.440   0.421   0.428   0.437   0.412   0.412   0.402   0.407   0.415   0.423   0.406   0.401   0.391   0.392
   126.55    0.372   0.404   0.403   0.405   0.419   0.418   0.390   0.372   0.386   0.417   0.406   0.384   0.385   0.417   0.421   0.426   0.416   0.404   0.407   0.415   0.424   0.449   0.434   0.439   0.430   0.418   0.426   0.428   0.419   0.408   0.423   0.409   0.402   0.387   0.362
   121.90    0.406   0.402   0.399   0.410   0.427   0.431   0.420   0.377   0.382   0.388   0.398   0.373   0.393   0.411   0.398   0.408   0.423   0.410   0.426   0.417   0.412   0.433   0.454   0.443   0.432   0.444   0.433   0.445   0.417   0.409   0.418   0.395   0.394   0.369   0.375
   117.25    0.429   0.417   0.406   0.398   0.419   0.431   0.421   0.394   0.376   0.387   0.364   0.396   0.398   0.411   0.427   0.429   0.437   0.428   0.421   0.426   0.413   0.425   0.429   0.444   0.446   0.438   0.459   0.444   0.430   0.414   0.410   0.408   0.384   0.367   0.387
   112.60    0.427   0.413   0.423   0.422   0.427   0.429   0.423   0.422   0.400   0.385   0.402   0.395   0.425   0.431   0.432   0.434   0.430   0.408   0.421   0.435   0.427   0.417   0.428   0.411   0.421   0.428   0.449   0.423   0.403   0.405   0.399   0.389   0.379   0.400   0.403
   107.95    0.458   0.441   0.442   0.431   0.430   0.431   0.438   0.420   0.428   0.418   0.393   0.421   0.441   0.432   0.452   0.448   0.431   0.416   0.424   0.406   0.415   0.408   0.403   0.411   0.422   0.413   0.432   0.421   0.409   0.404   0.379   0.370   0.365   0.392   0.387
   103.30    0.432   0.435   0.434   0.440   0.439   0.432   0.415   0.402   0.406   0.421   0.395   0.415   0.443   0.430   0.445   0.423   0.434   0.422   0.441   0.447   0.443   0.409   0.419   0.433   0.418   0.412   0.444   0.437   0.431   0.392   0.387   0.401   0.390   0.387   0.390
    98.65    0.415   0.411   0.421   0.442   0.443   0.439   0.421   0.403   0.407   0.410   0.394   0.426   0.431   0.433   0.437   0.437   0.431   0.424   0.451   0.458   0.452   0.418   0.417   0.409   0.415   0.425   0.444   0.447   0.434   0.416   0.409   0.419   0.407   0.405   0.403
    94.00    0.409   0.407   0.413   0.429   0.426   0.452   0.429   0.405   0.418   0.404   0.389   0.401   0.410   0.430   0.452   0.467   0.439   0.430   0.447   0.456   0.458   0.453   0.428   0.435   0.403   0.399   0.424   0.419   0.432   0.433   0.417   0.428   0.424   0.406   0.402
    89.35    0.409   0.409   0.416   0.431   0.438   0.454   0.431   0.437   0.429   0.415   0.390   0.396   0.432   0.447   0.480   0.455   0.456   0.447   0.462   0.461   0.456   0.445   0.464   0.464   0.420   0.380   0.402   0.411   0.387   0.435   0.460   0.442   0.427   0.410   0.407
    84.70    0.428   0.400   0.412   0.401   0.418   0.435   0.471   0.463   0.466   0.442   0.440   0.442   0.441   0.468   0.479   0.479   0.474   0.480   0.460   0.462   0.447   0.437   0.449   0.464   0.425   0.405   0.401   0.412   0.408   0.423   0.440   0.446   0.439   0.440   0.429
    80.05    0.436   0.417   0.421   0.423   0.419   0.450   0.449   0.475   0.482   0.502   0.461   0.434   0.423   0.436   0.469   0.487   0.475   0.466   0.446   0.456   0.442   0.450   0.456   0.460   0.433   0.427   0.412   0.400   0.397   0.436   0.440   0.440   0.396   0.432   0.436
    75.40    0.421   0.421   0.429   0.444   0.444   0.453   0.453   0.483   0.491   0.485   0.475   0.450   0.468   0.463   0.472   0.487   0.463   0.438   0.429   0.442   0.450   0.445   0.432   0.433   0.417   0.408   0.431   0.421   0.429   0.435   0.427   0.402   0.402   0.420   0.391
    70.75    0.446   0.441   0.449   0.432   0.454   0.450   0.450   0.460   0.465   0.485   0.481   0.479   0.474   0.475   0.463   0.470   0.437   0.453   0.454   0.460   0.427   0.429   0.428   0.418   0.405   0.405   0.426   0.420   0.439   0.453   0.434   0.414   0.385   0.396   0.400
    66.10    0.459   0.448   0.438   0.433   0.436   0.429   0.434   0.453   0.472   0.455   0.478   0.512   0.491   0.499   0.479   0.480   0.440   0.427   0.424   0.442   0.411   0.428   0.418   0.409   0.402   0.419   0.424   0.404   0.421   0.430   0.429   0.397   0.393   0.390   0.403
    61.45    0.469   0.430   0.423   0.407   0.420   0.436   0.445   0.433   0.458   0.477   0.471   0.483   0.479   0.440   0.451   0.453   0.443   0.412   0.409   0.424   0.409   0.429   0.428   0.412   0.420   0.425   0.426   0.407   0.413   0.425   0.411   0.391   0.378   0.380   0.387
    56.80    0.448   0.419   0.440   0.412   0.414   0.441   0.433   0.452   0.429   0.458   0.466   0.448   0.439   0.431   0.453   0.444   0.412   0.425   0.419   0.421   0.419   0.413   0.415   0.427   0.399   0.416   0.424   0.421   0.411   0.413   0.398   0.386   0.372   0.373   0.374
    52.15    0.445   0.422   0.428   0.416   0.422   0.439   0.436   0.434   0.453   0.453   0.449   0.460   0.430   0.424   0.457   0.460   0.422   0.424   0.438   0.426   0.430   0.432   0.416   0.390   0.406   0.402   0.433   0.441   0.410   0.404   0.398   0.377   0.369   0.371   0.352
    47.50    0.430   0.422   0.426   0.394   0.399   0.427   0.437   0.412   0.422   0.447   0.449   0.428   0.429   0.416   0.428   0.458   0.443   0.444   0.461   0.444   0.432   0.439   0.430   0.418   0.416   0.435   0.432   0.436   0.414   0.415   0.395   0.361   0.354   0.359   0.331
    42.85    0.416   0.437   0.421   0.414   0.401   0.395   0.385   0.408   0.402   0.415   0.429   0.412   0.419   0.413   0.417   0.445   0.476   0.462   0.447   0.443   0.432   0.428   0.431   0.425   0.417   0.431   0.429   0.421   0.402   0.412   0.378   0.358   0.371   0.375   0.355
    38.20    0.439   0.431   0.412   0.405   0.385   0.389   0.390   0.389   0.389   0.405   0.413   0.401   0.414   0.421   0.416   0.418   0.426   0.439   0.440   0.432   0.438   0.420   0.424   0.435   0.430   0.448   0.414   0.407   0.398   0.392   0.388   0.369   0.372   0.362   0.351
    33.55    0.428   0.420   0.412   0.432   0.412   0.394   0.396   0.393   0.392   0.386   0.400   0.389   0.393   0.396   0.399   0.393   0.414   0.436   0.430   0.440   0.425   0.427   0.421   0.422   0.437   0.417   0.409   0.413   0.379   0.387   0.368   0.376   0.369   0.370   0.357
    28.90    0.413   0.425   0.429   0.413   0.417   0.412   0.416   0.408   0.391   0.399   0.406   0.386   0.401   0.394   0.382   0.385   0.386   0.407   0.400   0.417   0.412   0.422   0.419   0.425   0.444   0.429   0.398   0.397   0.381   0.402   0.379   0.362   0.365   0.380   0.381
    24.25    0.459   0.436   0.424   0.389   0.379   0.388   0.383   0.392   0.403   0.426   0.417   0.426   0.422   0.403   0.411   0.406   0.381   0.397   0.403   0.396   0.407   0.429   0.409   0.424   0.423   0.411   0.389   0.393   0.386   0.393   0.396   0.381   0.376   0.379   0.397
    19.60    0.444   0.438   0.436   0.412   0.392   0.402   0.398   0.412   0.423   0.427   0.431   0.444   0.433   0.413   0.411   0.402   0.381   0.420   0.406   0.409   0.422   0.426   0.443   0.425   0.416   0.394   0.395   0.389   0.383   0.393   0.384   0.373   0.375   0.387   0.388
    14.95    0.448   0.436   0.422   0.422   0.389   0.382   0.395   0.397   0.429   0.421   0.419   0.427   0.404   0.407   0.414   0.399   0.395   0.410   0.428   0.423   0.421   0.436   0.432   0.416   0.427   0.400   0.404   0.413   0.396   0.379   0.368   0.396   0.383   0.394   0.382
    10.30    0.428   0.431   0.439   0.414   0.383   0.383   0.377   0.400   0.397   0.408   0.422   0.419   0.406   0.404   0.428   0.413   0.416   0.408   0.398   0.415   0.420   0.423   0.406   0.405   0.402   0.416   0.408   0.393   0.379   0.386   0.387   0.403   0.413   0.414   0.388
     5.65    0.426   0.443   0.436   0.409   0.398   0.430   0.417   0.415   0.411   0.390   0.387   0.404   0.417   0.426   0.407   0.427   0.430   0.423   0.412   0.408   0.423   0.421   0.423   0.398   0.411   0.408   0.413   0.389   0.378   0.375   0.389   0.389   0.415   0.401   0.400
     1.00    0.443   0.446   0.429   0.412   0.435   0.432   0.446   0.420   0.415   0.433   0.393   0.373   0.408   0.416   0.399   0.423   0.417   0.435   0.430   0.402   0.426   0.419   0.400   0.412   0.399   0.394   0.394   0.389   0.378   0.365   0.367   0.371   0.380   0.393   0.387

   Height   Standard deviation at grid points for the w component:
   168.40    0.236   0.235   0.231   0.243   0.254   0.244   0.239   0.244   0.252   0.237   0.246   0.235   0.237   0.243   0.234   0.234   0.240   0.241   0.246   0.247   0.252   0.252   0.234   0.231   0.232   0.236   0.237   0.234   0.246   0.237   0.226   0.225   0.227   0.230   0.233
   163.75    0.244   0.232   0.232   0.234   0.244   0.238   0.240   0.246   0.252   0.253   0.246   0.237   0.236   0.234   0.223   0.235   0.239   0.245   0.253   0.258   0.251   0.241   0.243   0.233   0.234   0.231   0.235   0.225   0.232   0.236   0.241   0.228   0.222   0.234   0.239
   159.10    0.238   0.237   0.236   0.234   0.235   0.230   0.237   0.242   0.247   0.252   0.251   0.245   0.223   0.233   0.235   0.238   0.245   0.251   0.255   0.251   0.250   0.245   0.242   0.239   0.234   0.236   0.235   0.236   0.234   0.239   0.239   0.236   0.219   0.220   0.230
   154.45    0.233   0.230   0.233   0.231   0.245   0.237   0.234   0.241   0.245   0.245   0.243   0.239   0.233   0.236   0.234   0.241   0.249   0.260   0.256   0.248   0.242   0.240   0.232   0.233   0.234   0.231   0.221   0.222   0.234   0.235   0.237   0.235   0.223   0.213   0.235
   149.80    0.230   0.230   0.242   0.233   0.235   0.239   0.239   0.241   0.246   0.248   0.242   0.230   0.237   0.243   0.236   0.247   0.248   0.248   0.243   0.227   0.230   0.232   0.231   0.233   0.224   0.223   0.221   0.217   0.221   0.231   0.234   0.227   0.210   0.220   0.229
   145.15    0.228   0.236   0.237   0.241   0.236   0.244   0.245   0.243   0.246   0.240   0.245   0.247   0.245   0.235   0.241   0.243   0.242   0.246   0.236   0.232   0.228   0.236   0.240   0.244   0.230   0.225   0.232   0.228   0.227   0.239   0.235   0.225   0.212   0.219   0.219
   140.50    0.228   0.237   0.241   0.237   0.241   0.240   0.251   0.260   0.254   0.247   0.249   0.256   0.251   0.244   0.242   0.235   0.231   0.246   0.240   0.237   0.225   0.239   0.237   0.243   0.244   0.237   0.237   0.229   0.232   0.235   0.237   0.229   0.219   0.215   0.222
   135.85    0.228   0.231   0.238   0.237   0.232   0.237   0.249   0.256   0.253   0.243   0.255   0.260   0.252   0.241   0.249   0.230   0.225   0.237   0.243   0.245   0.226   0.246   0.243   0.242   0.245   0.242   0.235   0.239   0.245   0.230   0.232   0.228   0.225   0.217   0.219
   131.20    0.226   0.233   0.249   0.238   0.243   0.248   0.254   0.256   0.249   0.254   0.262   0.260   0.249   0.245   0.249   0.239   0.237   0.233   0.241   0.241   0.248   0.240   0.255   0.251   0.252   0.234   0.236   0.235   0.233   0.234   0.229   0.226   0.231   0.232   0.229
   126.55    0.234   0.230   0.240   0.239   0.243   0.255   0.262   0.259   0.259   0.263   0.259   0.266   0.263   0.252   0.256   0.244   0.237   0.235   0.234   0.241   0.247   0.247   0.264   0.256   0.247   0.244   0.245   0.233   0.234   0.229   0.232   0.226   0.221   0.230   0.241
   121.90    0.233   0.230   0.235   0.245   0.254   0.254   0.256   0.256   0.265   0.264   0.254   0.246   0.257   0.253   0.253   0.249   0.254   0.245   0.240   0.232   0.240   0.252   0.247   0.256   0.238   0.239   0.245   0.240   0.230   0.229   0.234   0.229   0.234   0.236   0.244
   117.25    0.234   0.232   0.233   0.240   0.248   0.253   0.251   0.254   0.255   0.258   0.254   0.246   0.243   0.246   0.244   0.243   0.250   0.256   0.252   0.248   0.240   0.240   0.248   0.256   0.243   0.239   0.239   0.238   0.243   0.240   0.233   0.235   0.242   0.239   0.244
   112.60    0.247   0.241   0.253   0.252   0.244   0.252   0.248   0.255   0.254   0.238   0.247   0.245   0.237   0.236   0.239   0.241   0.242   0.241   0.254   0.243   0.236   0.240   0.255   0.256   0.247   0.244   0.234   0.230   0.225   0.234   0.234   0.237   0.234   0.244   0.243
   107.95    0.240   0.238   0.249   0.250   0.249   0.251   0.246   0.255   0.256   0.249   0.249   0.250   0.241   0.245   0.244   0.240   0.234   0.240   0.251   0.233   0.227   0.237   0.248   0.254   0.241   0.231   0.228   0.224   0.230   0.234   0.234   0.243   0.229   0.232   0.227
   103.30    0.240   0.243   0.251   0.242   0.248   0.255   0.246   0.250   0.254   0.248   0.244   0.244   0.240   0.244   0.244   0.248   0.246   0.231   0.236   0.228   0.231   0.237   0.246   0.243   0.229   0.231   0.237   0.240   0.241   0.240   0.243   0.243   0.234   0.234   0.241
    98.65    0.242   0.245   0.243   0.253   0.250   0.252   0.252   0.246   0.253   0.248   0.250   0.246   0.250   0.240   0.229   0.250   0.248   0.241   0.231   0.233   0.242   0.245   0.248   0.248   0.240   0.239   0.249   0.244   0.246   0.236   0.238   0.234   0.236   0.234   0.242
    94.00    0.241   0.234   0.231   0.234   0.246   0.246   0.254   0.256   0.250   0.246   0.252   0.246   0.248   0.254   0.245   0.248   0.243   0.235   0.237   0.237   0.239   0.242   0.239   0.244   0.237   0.243   0.244   0.247   0.235   0.242   0.241   0.232   0.235   0.243   0.242
    89.35    0.238   0.239   0.237   0.234   0.238   0.244   0.249   0.249   0.248   0.250   0.248   0.254   0.240   0.249   0.258   0.254   0.255   0.238   0.229   0.231   0.236   0.241   0.247   0.243   0.244   0.243   0.242   0.234   0.237   0.250   0.251   0.231   0.237   0.242   0.250
    84.70    0.246   0.244   0.242   0.250   0.252   0.242   0.238   0.246   0.244   0.244   0.253   0.244   0.238   0.247   0.253   0.253   0.251   0.239   0.242   0.237   0.236   0.244   0.246   0.237   0.234   0.244   0.243   0.237   0.240   0.246   0.245   0.246   0.249   0.239   0.246
    80.05    0.246   0.240   0.232   0.244   0.249   0.242   0.237   0.238   0.241   0.255   0.249   0.242   0.240   0.248   0.251   0.253   0.262   0.242   0.241   0.244   0.255   0.250   0.253   0.264   0.254   0.246   0.230   0.239   0.239   0.249   0.244   0.248   0.248   0.250   0.244
    75.40    0.252   0.248   0.242   0.238   0.241   0.235   0.240   0.237   0.241   0.253   0.254   0.245   0.244   0.244   0.255   0.247   0.240   0.244   0.238   0.242   0.249   0.261   0.255   0.251   0.257   0.234   0.234   0.240   0.246   0.234   0.250   0.251   0.252   0.234   0.247
    70.75    0.248   0.257   0.245   0.242   0.240   0.243   0.238   0.241   0.234   0.237   0.250   0.242   0.241   0.240   0.248   0.250   0.241   0.248   0.257   0.252   0.259   0.259   0.256   0.245   0.243   0.230   0.233   0.237   0.246   0.242   0.243   0.245   0.245   0.247   0.242
    66.10    0.248   0.250   0.257   0.251   0.237   0.242   0.241   0.238   0.251   0.247   0.244   0.239   0.232   0.228   0.240   0.239   0.250   0.251   0.268   0.251   0.261   0.275   0.268   0.251   0.239   0.245   0.251   0.250   0.246   0.245   0.249   0.250   0.244   0.245   0.248
    61.45    0.251   0.247   0.254   0.251   0.249   0.258   0.243   0.245   0.250   0.249   0.241   0.238   0.236   0.238   0.237   0.240   0.255   0.265   0.254   0.258   0.268   0.261   0.258   0.250   0.243   0.250   0.255   0.249   0.249   0.252   0.245   0.245   0.242   0.242   0.236
    56.80    0.260   0.262   0.259   0.247   0.248   0.252   0.245   0.245   0.242   0.243   0.243   0.234   0.246   0.234   0.237   0.235   0.249   0.260   0.261   0.245   0.256   0.259   0.253   0.252   0.250   0.253   0.254   0.244   0.241   0.255   0.247   0.242   0.248   0.250   0.242
    52.15    0.262   0.262   0.262   0.254   0.254   0.250   0.246   0.244   0.239   0.244   0.230   0.234   0.232   0.237   0.234   0.237   0.244   0.244   0.248   0.250   0.247   0.251   0.249   0.250   0.255   0.262   0.257   0.257   0.250   0.249   0.241   0.241   0.243   0.245   0.243
    47.50    0.261   0.255   0.259   0.260   0.256   0.255   0.260   0.247   0.241   0.249   0.239   0.232   0.231   0.231   0.233   0.228   0.234   0.226   0.232   0.240   0.244   0.244   0.247   0.256   0.252   0.254   0.251   0.245   0.249   0.242   0.242   0.231   0.234   0.235   0.235
    42.85    0.249   0.254   0.257   0.260   0.260   0.262   0.258   0.246   0.241   0.241   0.233   0.237   0.228   0.224   0.226   0.230   0.218   0.229   0.225   0.230   0.233   0.242   0.237   0.243   0.240   0.242   0.240   0.244   0.247   0.244   0.229   0.232   0.228   0.234   0.231
    38.20    0.255   0.246   0.251   0.247   0.245   0.249   0.255   0.243   0.245   0.234   0.238   0.235   0.236   0.228   0.235   0.232   0.228   0.227   0.224   0.228   0.234   0.234   0.238   0.241   0.238   0.241   0.240   0.243   0.243   0.236   0.233   0.227   0.227   0.231   0.236
    33.55    0.250   0.254   0.245   0.243   0.248   0.253   0.238   0.243   0.248   0.247   0.234   0.235   0.241   0.235   0.233   0.243   0.240   0.235   0.229   0.237   0.233   0.244   0.239   0.237   0.237   0.244   0.245   0.245   0.243   0.236   0.237   0.236   0.226   0.226   0.229
    28.90    0.261   0.247   0.247   0.240   0.248   0.248   0.249   0.242   0.246   0.234   0.240   0.245   0.234   0.233   0.236   0.249   0.246   0.243   0.236   0.230   0.232   0.241   0.242   0.238   0.242   0.246   0.243   0.241   0.243   0.234   0.239   0.217   0.220   0.223   0.227
    24.25    0.244   0.242   0.242   0.233   0.245   0.247   0.254   0.250   0.243   0.239   0.249   0.238   0.241   0.242   0.246   0.252   0.247   0.244   0.243   0.236   0.234   0.240   0.234   0.241   0.246   0.246   0.255   0.247   0.244   0.232   0.232   0.231   0.221   0.227   0.234
    19.60    0.229   0.234   0.229   0.238   0.234   0.240   0.247   0.254   0.250   0.245   0.240   0.244   0.245   0.241   0.238   0.244   0.244   0.250   0.248   0.244   0.239   0.242   0.245   0.240   0.241   0.248   0.249   0.246   0.251   0.240   0.238   0.235   0.225   0.229   0.232
    14.95    0.230   0.236   0.239   0.234   0.238   0.237   0.238   0.241   0.241   0.245   0.237   0.232   0.244   0.244   0.247   0.240   0.233   0.243   0.246   0.237   0.237   0.238   0.234   0.249   0.241   0.234   0.247   0.248   0.255   0.246   0.238   0.243   0.238   0.224   0.231
    10.30    0.239   0.239   0.239   0.230   0.245   0.242   0.233   0.241   0.242   0.247   0.253   0.235   0.242   0.247   0.242   0.240   0.238   0.240   0.236   0.239   0.246   0.249   0.240   0.245   0.238   0.236   0.234   0.238   0.243   0.242   0.239   0.234   0.230   0.237   0.232
     5.65    0.241   0.243   0.241   0.228   0.233   0.236   0.233   0.244   0.244   0.239   0.244   0.245   0.245   0.243   0.231   0.234   0.238   0.241   0.234   0.236   0.236   0.241   0.247   0.239   0.234   0.235   0.240   0.227   0.236   0.240   0.239   0.244   0.238   0.231   0.229
     1.00    0.240   0.242   0.238   0.231   0.233   0.239   0.237   0.245   0.242   0.247   0.242   0.246   0.237   0.232   0.239   0.243   0.240   0.239   0.237   0.240   0.252   0.249   0.248   0.245   0.245   0.237   0.229   0.237   0.238   0.234   0.244   0.241   0.235   0.250   0.237

   Mean standard deviation across all grid points:
      u component:    0.518 m/s
      v component:    0.411 m/s
      w component:    0.242 m/s


U-component (X) statistics from the interpolated hub point:

   Mean =   9.9913 m/s
   TI   =   5.3719 %


Processing complete.  6417.6 CPU seconds used.
