
This summary file was generated by TurbSim (from OpenFAST-v3.5.3) on 20-Apr-2025 at 12:37:19.


Runtime Options:

**********  Random seed #1
    RANLUX  Type of random number generator
         F  Output binary HH turbulence parameters?
         F  Output formatted turbulence parameters?
         F  Output AeroDyn HH files?
         T  Output AeroDyn FF files?
         F  Output BLADED FF files?
         F  Output tower data?
         F  Output HAWC FF files?
         F  Output formatted FF files?
         T  Output coherent turbulence time step file?
 0 -  NONE  IEC turbulence models scaled to exact specified standard deviation


Turbine/Model Specifications:

        37  Vertical grid-point matrix dimension
        35  Horizontal grid-point matrix dimension
     0.250  Time step [seconds]
   900.000  Analysis time [seconds]
   900.000  Usable output time [seconds]
    89.350  Hub height [m]
   167.400  Grid height [m]
   158.100  Grid width [m]
     0.000  Vertical flow angle [degrees]
     0.000  Horizontal flow angle [degrees]


Meteorological Boundary Conditions:

    TIMESR  User-input time series spectral model
       N/A  IEC standard
       N/A  IEC turbulence characteristic
       N/A  IEC turbulence type
       N/A  IEC Extreme Turbulence Model (ETM) "c" parameter [m/s]
       PL   Wind profile type
    90.000  Reference height [m]
    10.000  Reference wind speed [m/s]
       N/A  Jet height [m]
     0.120  Power law exponent
     0.030  Surface roughness length [m]


Non-IEC Meteorological Boundary Conditions:

    45.000  Site latitude [degrees]
     0.050  Gradient Richardson number
     0.480  Friction or shear velocity [m/s]
       N/A  Mixing layer depth [m]
       N/A  Mean hub u'w' Reynolds stress
       N/A  Mean hub u'v' Reynolds stress
       N/A  Mean hub v'w' Reynolds stress


Spatial Coherence Models:

       IEC  u-component coherence model
       IEC  v-component coherence model
       IEC  w-component coherence model
(   12.000, 0.353E-03)  u-component coherence parameters
(   12.000, 0.353E-03)  v-component coherence parameters
(   12.000, 0.353E-03)  w-component coherence parameters
       N/A  Coherence exponent


Coherent Turbulence Scaling Parameters:

.\EventData
            Name of the path containing the coherent turbulence data files
       les  Type of coherent turbulence data files
     1.000  Disturbance scale (ratio of wave height to rotor diameter)
     0.500  Fractional location of tower centerline from right
     0.500  Fractional location of hub height from the bottom of the dataset
    30.000  Minimum start time for coherent structures [seconds]


Profiles from User-Defined Time-Series Input:

  Height   Wind Speed   Horizontal Angle   Vertical Angle
   (m)        (m/s)          (deg)              (deg)    
  ------   ----------   ----------------   --------------
   94.00      10.00          -0.63               -0.00


You have requested that the following file(s) be generated:

   /kfs3/scratch/agupta/Projects/RL_Incubator/FinalRuns_Veer/Seed4/./FFSim_Seed4/Cond00_v10.0_PL0.12_TI7.5/Case3_wdirp06/Seed_7/TurbSim/HighT4.bts (AeroDyn/TurbSim full-field wind file)


Turbulence Simulation Scaling Parameter Summary:

   Turbulence model used                            =  User-input time series
   Gradient Richardson number                       =    0.050
   Monin-Obukhov (M-O) z/L parameter                =    0.067
   Monin-Obukhov (M-O) length scale                 = 1340.250 m
   Mean wind speed at hub height                    =    9.991 m/s

   Wind profile type                                =  Power law
   Power law exponent                               =    0.120
   Mean shear across rotor disk                     =    0.019 (m/s)/m
   Assumed rotor diameter                           =  158.100 m
   Surface roughness length                         =    0.030 m

   Nyquist frequency of turbulent wind field        =    2.000 Hz

   Number of time steps in the FFT                  =     3600
   Number of time steps output                      =     3600
   Number of points simulated                       =     1296


Mean Flow Angles:

   Vertical   =   0.0 degrees
   Horizontal =   0.0 degrees

Mean Wind Speed Profile:

   Height    Wind Speed   Horizontal Angle  Vertical Angle  U-comp (X)   V-comp (Y)   W-comp (Z)
     (m)        (m/s)         (degrees)       (degrees)       (m/s)        (m/s)        (m/s)   
   ------    ----------   ----------------  --------------  ----------   ----------   ----------
    168.4       10.78            0.00            0.00         10.78         0.00         0.00
    163.7       10.74            0.00            0.00         10.74         0.00         0.00
    159.1       10.71            0.00            0.00         10.71         0.00         0.00
    154.4       10.67            0.00            0.00         10.67         0.00         0.00
    149.8       10.63            0.00            0.00         10.63         0.00         0.00
    145.1       10.59            0.00            0.00         10.59         0.00         0.00
    140.5       10.55            0.00            0.00         10.55         0.00         0.00
    135.8       10.51            0.00            0.00         10.51         0.00         0.00
    131.2       10.46            0.00            0.00         10.46         0.00         0.00
    126.5       10.42            0.00            0.00         10.42         0.00         0.00
    121.9       10.37            0.00            0.00         10.37         0.00         0.00
    117.2       10.32            0.00            0.00         10.32         0.00         0.00
    112.6       10.27            0.00            0.00         10.27         0.00         0.00
    107.9       10.22            0.00            0.00         10.22         0.00         0.00
    103.3       10.17            0.00            0.00         10.17         0.00         0.00
     98.6       10.11            0.00            0.00         10.11         0.00         0.00
     94.0       10.05            0.00            0.00         10.05         0.00         0.00
     89.3        9.99            0.00            0.00          9.99         0.00         0.00
     84.7        9.93            0.00            0.00          9.93         0.00         0.00
     80.0        9.86            0.00            0.00          9.86         0.00         0.00
     75.4        9.79            0.00            0.00          9.79         0.00         0.00
     70.7        9.72            0.00            0.00          9.72         0.00         0.00
     66.1        9.64            0.00            0.00          9.64         0.00         0.00
     61.4        9.55            0.00            0.00          9.55         0.00         0.00
     56.8        9.46            0.00            0.00          9.46         0.00         0.00
     52.1        9.37            0.00            0.00          9.37         0.00         0.00
     47.5        9.26            0.00            0.00          9.26         0.00         0.00
     42.8        9.15            0.00            0.00          9.15         0.00         0.00
     38.2        9.02            0.00            0.00          9.02         0.00         0.00
     33.5        8.88            0.00            0.00          8.88         0.00         0.00
     28.9        8.73            0.00            0.00          8.73         0.00         0.00
     24.2        8.54            0.00            0.00          8.54         0.00         0.00
     19.6        8.33            0.00            0.00          8.33         0.00         0.00
     14.9        8.06            0.00            0.00          8.06         0.00         0.00
     10.3        7.71            0.00            0.00          7.71         0.00         0.00
      5.6        7.17            0.00            0.00          7.17         0.00         0.00
      1.0        5.83            0.00            0.00          5.83         0.00         0.00


Harvested Random Seeds after Generation of the Random Numbers:

     65026800 K 1
            0 K 2


Hub-Height Simulated Turbulence Statistical Summary:

   Type of Wind        Min (m/s)   Mean (m/s)    Max (m/s)  Sigma (m/s)       TI (%)
   ----------------    ---------   ----------    ---------  -----------       ------
   Longitudinal (u)         7.24         9.99        12.22        0.863        8.636
   Lateral (v)             -1.77        -0.00         1.81        0.540        5.400
   Vertical (w)            -1.28        -0.00         1.18        0.363        3.631
   U component              7.24         9.99        12.22        0.863        8.636
   V component             -1.77        -0.00         1.81        0.540        5.400
   W component             -1.28        -0.00         1.18        0.363        3.631
   Horizontal (U&V)         7.24        10.01        12.23        0.861        8.600
   Total                    7.24        10.01        12.23        0.860        8.587

                       Min Reynolds     Mean Reynolds    Max Reynolds    Correlation
   Product             Stress (m/s)^2   Stress (m/s)^2   Stress (m/s)^2  Coefficient
   ----------------    --------------   --------------   --------------  -----------
   u'w'                     -1.524             0.002             2.028         0.005
   u'v'                     -2.066             0.017             3.660         0.036
   v'w'                     -1.223             0.003             1.433         0.015


   Friction Velocity (Ustar)  =      0.040 m/s
   Maximum Instantaneous TKE  =      4.462 (m/s)^2
   Maximum Instantaneous CTKE =      1.989 (m/s)^2


Grid Point Variance Summary:

   Y-coord  -79.05  -74.40  -69.75  -65.10  -60.45  -55.80  -51.15  -46.50  -41.85  -37.20  -32.55  -27.90  -23.25  -18.60  -13.95   -9.30   -4.65    0.00    4.65    9.30   13.95   18.60   23.25   27.90   32.55   37.20   41.85   46.50   51.15   55.80   60.45   65.10   69.75   74.40   79.05

   Height   Standard deviation at grid points for the u component:
   168.40    0.791   0.829   0.834   0.784   0.796   0.821   0.792   0.819   0.809   0.806   0.841   0.849   0.831   0.791   0.776   0.791   0.810   0.806   0.805   0.880   0.862   0.858   0.860   0.892   0.868   0.822   0.811   0.866   0.856   0.847   0.882   0.857   0.905   0.896   0.887
   163.75    0.818   0.844   0.779   0.782   0.800   0.879   0.825   0.805   0.843   0.833   0.816   0.889   0.850   0.803   0.780   0.806   0.825   0.849   0.882   0.878   0.866   0.833   0.818   0.786   0.793   0.823   0.810   0.835   0.862   0.865   0.925   0.881   0.901   0.903   0.901
   159.10    0.820   0.851   0.811   0.780   0.840   0.889   0.884   0.846   0.904   0.866   0.888   0.931   0.886   0.855   0.799   0.824   0.817   0.865   0.899   0.914   0.897   0.811   0.805   0.809   0.807   0.847   0.834   0.823   0.833   0.894   0.908   0.933   0.967   0.962   0.949
   154.45    0.845   0.830   0.786   0.791   0.838   0.842   0.880   0.904   0.883   0.804   0.859   0.865   0.845   0.819   0.903   0.823   0.893   0.874   0.883   0.960   0.930   0.886   0.865   0.866   0.841   0.864   0.888   0.885   0.902   0.897   0.940   0.933   0.985   0.968   0.999
   149.80    0.843   0.819   0.784   0.794   0.796   0.815   0.819   0.845   0.850   0.851   0.884   0.941   0.873   0.826   0.815   0.845   0.892   0.903   0.864   0.954   0.956   0.903   0.898   0.923   0.882   0.862   0.928   0.896   0.864   0.914   0.922   0.932   0.948   0.983   0.978
   145.15    0.842   0.810   0.805   0.795   0.770   0.817   0.842   0.873   0.938   0.877   0.943   0.970   0.888   0.872   0.864   0.884   0.894   0.939   0.910   0.956   0.951   0.927   0.957   0.924   0.934   0.905   0.924   0.942   0.941   0.903   0.901   0.939   0.949   1.016   1.001
   140.50    0.802   0.801   0.753   0.762   0.737   0.803   0.837   0.886   0.922   0.859   0.943   0.989   0.963   0.880   0.858   0.835   0.913   0.918   0.914   0.956   0.929   0.909   0.904   0.925   0.941   0.969   0.960   0.937   0.890   0.927   0.943   0.977   1.001   1.001   1.021
   135.85    0.838   0.760   0.738   0.762   0.744   0.784   0.867   0.877   0.879   0.929   0.949   0.960   0.968   0.902   0.890   0.843   0.891   0.910   0.935   0.959   0.945   0.907   0.869   0.893   0.959   0.954   0.931   0.931   0.934   0.908   0.901   0.965   0.960   1.000   1.009
   131.20    0.836   0.762   0.795   0.811   0.777   0.842   0.865   0.917   0.918   0.938   0.907   0.973   0.971   0.947   0.969   0.949   0.898   0.885   0.941   0.930   0.882   0.870   0.907   0.901   0.948   0.928   0.924   0.907   0.907   0.885   0.899   0.909   0.917   0.925   0.955
   126.55    0.794   0.797   0.772   0.780   0.810   0.830   0.855   0.939   0.968   0.913   0.974   0.979   0.995   1.023   0.921   0.949   0.895   0.876   0.887   0.912   0.874   0.864   0.929   0.941   0.954   0.967   0.891   0.827   0.883   0.876   0.894   0.858   0.891   0.930   0.938
   121.90    0.770   0.845   0.771   0.786   0.858   0.851   0.838   0.910   0.947   0.915   0.961   0.962   0.941   0.951   0.877   0.921   0.894   0.824   0.803   0.839   0.806   0.867   0.954   0.963   0.935   0.946   0.941   0.908   0.874   0.900   0.872   0.868   0.884   0.910   0.922
   117.25    0.831   0.839   0.825   0.876   0.856   0.871   0.920   0.953   0.916   0.924   0.958   0.926   0.889   0.883   0.898   0.857   0.826   0.798   0.824   0.793   0.803   0.863   0.886   0.918   0.940   0.930   0.898   0.895   0.861   0.911   0.909   0.895   0.871   0.905   0.948
   112.60    0.795   0.841   0.843   0.804   0.841   0.890   0.871   0.983   0.973   0.978   0.971   0.929   0.854   0.859   0.807   0.837   0.748   0.751   0.795   0.781   0.846   0.927   0.926   0.898   0.946   0.944   0.943   0.913   0.971   0.908   0.877   0.897   0.890   0.910   0.941
   107.95    0.766   0.808   0.848   0.819   0.883   0.892   0.878   0.951   0.985   1.004   0.971   0.947   0.906   0.855   0.828   0.746   0.727   0.771   0.823   0.804   0.842   0.864   0.918   0.946   0.976   0.944   0.912   0.935   0.965   0.945   0.895   0.914   0.927   0.928   0.847
   103.30    0.817   0.792   0.830   0.828   0.827   0.892   0.853   0.875   0.961   0.998   0.988   0.912   0.826   0.819   0.743   0.811   0.788   0.785   0.821   0.802   0.843   0.842   0.931   0.965   0.959   0.949   0.935   0.931   1.005   0.997   0.959   0.912   0.886   0.899   0.898
    98.65    0.774   0.811   0.776   0.838   0.882   0.854   0.880   0.919   0.953   0.976   0.973   0.906   0.817   0.781   0.756   0.806   0.791   0.812   0.801   0.889   0.874   0.863   0.915   0.902   0.876   0.954   0.941   0.937   0.973   1.042   1.050   0.909   0.884   0.889   0.884
    94.00    0.888   0.821   0.862   0.846   0.888   0.875   0.890   0.861   0.963   0.981   0.902   0.913   0.842   0.840   0.768   0.776   0.846   0.844   0.850   0.842   0.884   0.927   0.893   0.899   0.890   0.884   0.899   0.928   1.009   1.027   1.059   0.946   0.884   0.917   0.880
    89.35    0.920   0.893   0.887   0.935   0.927   0.928   0.867   0.860   0.915   0.935   0.904   0.857   0.851   0.868   0.796   0.840   0.860   0.863   0.830   0.880   0.917   0.927   0.851   0.885   0.894   0.871   0.915   0.948   0.999   1.002   1.043   0.991   0.980   0.961   0.966
    84.70    0.945   0.920   0.962   0.921   0.893   0.893   0.943   0.931   0.876   0.896   0.869   0.901   0.870   0.840   0.820   0.872   0.916   0.902   0.917   0.905   0.918   0.986   0.899   0.850   0.904   0.953   0.907   0.926   0.952   0.988   0.995   1.013   1.006   1.009   1.015
    80.05    0.952   0.950   0.991   0.991   1.001   1.003   1.020   0.941   0.898   0.904   0.882   0.911   0.862   0.884   0.892   0.918   0.903   0.945   0.947   0.921   0.955   0.972   0.885   0.930   0.932   0.932   0.960   1.000   0.988   0.983   1.012   1.036   1.075   1.077   1.101
    75.40    1.025   0.995   1.011   1.032   1.084   1.129   1.052   0.971   0.963   0.968   0.954   0.888   0.943   0.929   0.916   0.952   0.901   0.871   0.919   0.945   0.964   0.972   0.917   0.922   0.927   0.959   1.003   1.019   1.032   0.971   1.026   1.001   1.052   1.057   1.096
    70.75    1.054   1.090   1.032   1.053   1.102   1.096   1.037   0.968   0.976   0.977   0.987   1.002   0.969   0.885   0.933   0.935   0.908   0.946   0.976   1.007   0.994   0.963   0.956   0.958   0.958   1.034   1.060   0.971   1.035   0.999   0.992   1.036   1.020   1.022   1.055
    66.10    1.066   1.076   1.105   1.065   1.006   1.066   0.986   1.016   0.998   0.994   0.999   1.033   1.052   0.994   0.938   1.032   1.007   1.041   1.025   0.992   1.066   1.012   1.037   1.039   1.039   1.028   0.977   0.987   0.985   0.999   0.974   1.013   0.959   1.068   1.104
    61.45    1.061   1.051   1.077   1.039   1.041   1.036   1.042   1.071   0.996   1.023   1.058   1.036   1.071   1.074   1.070   1.055   1.019   1.042   1.041   1.083   1.085   1.013   1.038   1.044   0.968   0.978   0.971   1.026   1.033   1.007   0.980   1.029   1.017   1.018   1.023
    56.80    1.025   1.027   1.054   1.047   1.057   1.069   1.005   1.046   1.031   1.052   1.035   1.023   1.055   1.061   1.092   1.051   1.080   1.087   1.107   1.125   1.055   1.051   1.003   1.006   0.959   1.026   1.026   1.070   1.062   1.041   1.023   1.052   1.042   1.044   1.020
    52.15    0.945   0.948   0.967   1.041   1.073   1.045   1.025   0.989   0.996   1.022   1.055   0.997   1.053   0.989   1.050   1.055   1.082   1.094   1.134   1.075   1.081   1.046   1.026   0.967   0.977   1.026   1.067   1.080   1.064   1.018   1.092   1.064   1.134   1.066   1.078
    47.50    0.941   0.910   1.004   1.035   1.076   1.077   1.039   1.021   1.107   1.084   1.118   1.039   1.030   1.030   1.025   1.032   1.021   1.103   1.079   1.091   1.105   1.050   1.044   1.009   1.049   1.073   1.094   1.101   1.066   1.045   1.077   1.085   1.094   1.144   1.143
    42.85    0.918   0.951   0.980   0.995   1.026   1.052   1.049   1.110   1.119   1.158   1.153   1.101   1.040   1.055   1.056   1.042   1.004   1.052   1.051   1.047   1.117   1.079   1.057   1.057   1.059   1.080   1.035   1.064   1.066   1.031   1.095   1.088   0.989   1.124   1.102
    38.20    0.903   0.939   0.985   0.941   0.993   1.003   1.033   1.122   1.185   1.133   1.131   1.066   0.976   1.041   1.119   1.154   1.086   1.064   1.101   1.087   1.092   1.107   1.086   1.051   1.077   0.992   1.057   1.046   0.945   0.991   1.019   1.019   1.002   1.126   1.122
    33.55    0.862   0.885   0.935   0.942   0.994   1.105   1.116   1.146   1.168   1.180   1.108   1.038   0.993   1.018   1.122   1.119   1.131   1.085   1.119   1.064   1.083   1.070   1.061   1.090   1.053   1.024   1.088   1.024   0.988   0.980   0.923   0.935   1.000   1.104   1.171
    28.90    0.839   0.882   0.957   0.972   1.019   1.126   1.127   1.131   1.154   1.196   1.161   1.067   1.013   1.096   1.128   1.164   1.167   1.134   1.135   1.149   1.088   1.055   0.995   1.038   1.019   1.052   1.002   1.056   1.038   1.008   0.963   0.920   1.019   1.099   1.131
    24.25    0.863   0.923   0.954   0.963   0.981   1.039   1.119   1.173   1.203   1.158   1.180   1.105   1.037   1.060   1.058   1.168   1.200   1.252   1.141   1.128   1.168   1.041   1.014   1.007   1.021   1.004   1.005   0.987   0.996   0.968   0.942   0.997   1.029   1.133   1.146
    19.60    0.915   0.896   0.914   1.002   1.014   1.061   1.113   1.139   1.096   1.175   1.159   1.094   1.082   1.141   1.093   1.183   1.247   1.250   1.231   1.223   1.217   1.097   1.023   1.002   0.966   1.077   1.123   1.039   1.054   1.023   1.034   1.144   1.152   1.157   1.219
    14.95    0.862   0.881   0.918   1.028   1.049   1.039   1.013   1.006   1.098   1.099   1.100   1.074   1.126   1.141   1.144   1.196   1.228   1.211   1.226   1.235   1.116   1.112   1.042   1.028   1.041   1.083   1.105   1.072   1.042   1.139   1.124   1.177   1.230   1.227   1.163
    10.30    0.907   0.892   0.943   1.013   1.037   1.036   1.034   1.004   1.058   1.154   1.101   1.134   1.128   1.163   1.192   1.217   1.269   1.181   1.205   1.176   1.110   1.083   1.081   1.045   0.997   1.034   1.079   1.115   1.101   1.175   1.216   1.226   1.223   1.234   1.239
     5.65    0.979   0.940   0.947   1.047   1.102   1.108   1.053   1.067   1.040   1.092   1.107   1.144   1.117   1.171   1.158   1.126   1.228   1.194   1.173   1.096   1.072   1.054   1.078   1.020   1.054   1.041   1.127   1.108   1.124   1.142   1.242   1.210   1.222   1.281   1.238
     1.00    0.979   0.949   0.972   1.053   1.047   1.110   1.074   1.054   1.043   1.100   1.092   1.086   1.052   1.086   1.110   1.159   1.229   1.188   1.085   1.114   1.160   1.073   1.000   1.034   1.074   1.077   1.140   1.157   1.111   1.181   1.231   1.262   1.298   1.310   1.269

   Height   Standard deviation at grid points for the v component:
   168.40    0.531   0.538   0.556   0.573   0.561   0.566   0.565   0.575   0.570   0.557   0.566   0.564   0.555   0.526   0.523   0.505   0.526   0.542   0.537   0.506   0.498   0.502   0.498   0.510   0.513   0.503   0.519   0.539   0.563   0.593   0.597   0.572   0.584   0.574   0.549
   163.75    0.533   0.522   0.533   0.540   0.548   0.562   0.569   0.578   0.597   0.564   0.577   0.583   0.560   0.542   0.509   0.526   0.521   0.557   0.548   0.540   0.515   0.493   0.519   0.498   0.486   0.495   0.494   0.512   0.557   0.593   0.596   0.594   0.585   0.549   0.558
   159.10    0.526   0.533   0.532   0.534   0.540   0.533   0.567   0.564   0.586   0.571   0.565   0.573   0.561   0.529   0.507   0.531   0.545   0.542   0.570   0.558   0.537   0.518   0.532   0.505   0.497   0.541   0.513   0.502   0.518   0.576   0.580   0.579   0.602   0.574   0.556
   154.45    0.525   0.541   0.549   0.578   0.543   0.540   0.534   0.565   0.549   0.589   0.560   0.568   0.559   0.546   0.526   0.538   0.574   0.553   0.559   0.530   0.521   0.521   0.504   0.503   0.531   0.535   0.520   0.511   0.535   0.544   0.564   0.575   0.587   0.540   0.566
   149.80    0.523   0.545   0.529   0.535   0.546   0.547   0.558   0.564   0.538   0.562   0.566   0.578   0.582   0.567   0.558   0.555   0.564   0.553   0.548   0.510   0.555   0.531   0.499   0.531   0.533   0.529   0.508   0.496   0.528   0.556   0.553   0.551   0.560   0.576   0.574
   145.15    0.509   0.533   0.535   0.503   0.514   0.544   0.548   0.553   0.543   0.560   0.566   0.572   0.568   0.559   0.564   0.548   0.562   0.554   0.547   0.516   0.527   0.510   0.539   0.552   0.527   0.520   0.509   0.516   0.509   0.529   0.532   0.538   0.553   0.601   0.586
   140.50    0.523   0.529   0.522   0.511   0.507   0.548   0.560   0.578   0.563   0.570   0.558   0.576   0.560   0.533   0.552   0.554   0.549   0.552   0.531   0.521   0.554   0.531   0.543   0.532   0.516   0.531   0.534   0.522   0.528   0.528   0.535   0.548   0.562   0.561   0.578
   135.85    0.534   0.542   0.528   0.517   0.509   0.505   0.547   0.556   0.537   0.541   0.552   0.554   0.573   0.581   0.566   0.556   0.541   0.542   0.554   0.535   0.528   0.552   0.580   0.528   0.495   0.508   0.545   0.532   0.519   0.556   0.534   0.526   0.548   0.570   0.566
   131.20    0.537   0.544   0.507   0.519   0.523   0.515   0.548   0.542   0.511   0.537   0.547   0.570   0.569   0.585   0.577   0.566   0.555   0.535   0.510   0.528   0.537   0.521   0.534   0.523   0.496   0.505   0.510   0.522   0.527   0.531   0.530   0.520   0.532   0.569   0.552
   126.55    0.551   0.566   0.526   0.500   0.536   0.528   0.535   0.548   0.531   0.539   0.552   0.569   0.573   0.555   0.539   0.539   0.540   0.542   0.518   0.504   0.514   0.493   0.505   0.506   0.522   0.509   0.495   0.492   0.506   0.545   0.552   0.558   0.583   0.576   0.579
   121.90    0.531   0.546   0.525   0.522   0.546   0.538   0.552   0.533   0.536   0.575   0.568   0.572   0.544   0.559   0.506   0.527   0.525   0.549   0.531   0.496   0.547   0.508   0.520   0.507   0.509   0.507   0.500   0.509   0.512   0.542   0.559   0.569   0.582   0.569   0.592
   117.25    0.514   0.521   0.535   0.527   0.518   0.529   0.530   0.525   0.550   0.562   0.588   0.588   0.584   0.549   0.508   0.522   0.541   0.547   0.558   0.546   0.551   0.526   0.526   0.508   0.488   0.501   0.505   0.504   0.518   0.567   0.589   0.561   0.559   0.556   0.548
   112.60    0.511   0.514   0.525   0.501   0.525   0.564   0.544   0.556   0.563   0.582   0.595   0.610   0.596   0.562   0.545   0.554   0.547   0.549   0.547   0.544   0.537   0.527   0.539   0.522   0.536   0.548   0.539   0.542   0.536   0.564   0.568   0.541   0.545   0.551   0.529
   107.95    0.505   0.521   0.546   0.537   0.536   0.558   0.532   0.533   0.529   0.591   0.608   0.632   0.587   0.588   0.568   0.581   0.578   0.572   0.532   0.521   0.536   0.525   0.539   0.547   0.582   0.574   0.570   0.552   0.553   0.525   0.527   0.537   0.534   0.540   0.535
   103.30    0.535   0.509   0.522   0.528   0.537   0.546   0.553   0.512   0.552   0.566   0.599   0.589   0.600   0.595   0.559   0.571   0.559   0.556   0.549   0.510   0.558   0.540   0.534   0.549   0.561   0.584   0.607   0.560   0.552   0.527   0.520   0.523   0.550   0.563   0.546
    98.65    0.495   0.508   0.520   0.539   0.526   0.543   0.558   0.533   0.548   0.556   0.572   0.574   0.581   0.546   0.565   0.542   0.520   0.507   0.540   0.524   0.530   0.553   0.545   0.568   0.564   0.582   0.580   0.554   0.543   0.540   0.527   0.544   0.548   0.567   0.554
    94.00    0.496   0.483   0.506   0.522   0.519   0.526   0.509   0.520   0.536   0.569   0.591   0.571   0.560   0.536   0.519   0.524   0.547   0.530   0.527   0.525   0.532   0.550   0.566   0.561   0.557   0.546   0.563   0.547   0.546   0.543   0.555   0.546   0.533   0.540   0.542
    89.35    0.504   0.502   0.505   0.506   0.496   0.490   0.496   0.520   0.544   0.561   0.571   0.578   0.526   0.555   0.534   0.552   0.528   0.540   0.525   0.539   0.544   0.543   0.572   0.565   0.546   0.539   0.537   0.550   0.560   0.559   0.550   0.545   0.549   0.529   0.531
    84.70    0.515   0.496   0.486   0.485   0.494   0.510   0.536   0.525   0.538   0.557   0.568   0.567   0.551   0.574   0.544   0.552   0.547   0.525   0.548   0.557   0.563   0.566   0.583   0.548   0.559   0.553   0.544   0.529   0.547   0.557   0.536   0.549   0.527   0.547   0.520
    80.05    0.471   0.466   0.495   0.487   0.497   0.509   0.518   0.509   0.535   0.546   0.554   0.579   0.559   0.534   0.531   0.525   0.542   0.529   0.538   0.547   0.532   0.576   0.575   0.549   0.565   0.551   0.533   0.543   0.543   0.544   0.565   0.552   0.544   0.526   0.522
    75.40    0.458   0.485   0.484   0.513   0.503   0.498   0.517   0.511   0.518   0.506   0.536   0.541   0.541   0.532   0.511   0.516   0.540   0.513   0.548   0.572   0.548   0.543   0.566   0.567   0.559   0.547   0.545   0.524   0.513   0.538   0.553   0.557   0.570   0.549   0.521
    70.75    0.476   0.497   0.520   0.504   0.507   0.515   0.514   0.517   0.517   0.520   0.523   0.541   0.511   0.508   0.518   0.510   0.531   0.537   0.546   0.549   0.551   0.550   0.570   0.558   0.553   0.558   0.524   0.532   0.527   0.569   0.563   0.574   0.568   0.523   0.518
    66.10    0.488   0.526   0.521   0.514   0.500   0.505   0.514   0.515   0.512   0.504   0.524   0.524   0.491   0.503   0.521   0.531   0.536   0.547   0.550   0.559   0.562   0.579   0.578   0.555   0.549   0.547   0.545   0.554   0.558   0.570   0.573   0.577   0.545   0.554   0.513
    61.45    0.464   0.492   0.493   0.513   0.510   0.510   0.484   0.525   0.524   0.502   0.505   0.523   0.475   0.529   0.533   0.533   0.530   0.563   0.580   0.555   0.533   0.558   0.564   0.564   0.548   0.568   0.567   0.573   0.583   0.539   0.551   0.549   0.537   0.521   0.522
    56.80    0.499   0.500   0.511   0.504   0.518   0.532   0.493   0.528   0.549   0.533   0.520   0.530   0.513   0.529   0.544   0.550   0.548   0.537   0.548   0.545   0.539   0.543   0.504   0.534   0.538   0.546   0.568   0.542   0.535   0.549   0.549   0.552   0.515   0.507   0.516
    52.15    0.492   0.518   0.490   0.487   0.512   0.525   0.488   0.524   0.563   0.542   0.526   0.564   0.518   0.537   0.540   0.577   0.567   0.528   0.500   0.540   0.523   0.531   0.528   0.550   0.553   0.554   0.537   0.540   0.535   0.558   0.551   0.541   0.543   0.536   0.514
    47.50    0.532   0.553   0.547   0.531   0.528   0.509   0.512   0.549   0.538   0.535   0.547   0.519   0.531   0.521   0.534   0.574   0.567   0.536   0.529   0.535   0.539   0.552   0.529   0.523   0.547   0.557   0.540   0.542   0.539   0.525   0.515   0.531   0.531   0.522   0.530
    42.85    0.556   0.539   0.547   0.554   0.524   0.513   0.533   0.518   0.522   0.513   0.516   0.499   0.503   0.496   0.509   0.556   0.541   0.552   0.536   0.548   0.526   0.522   0.508   0.509   0.534   0.551   0.554   0.552   0.558   0.540   0.549   0.538   0.524   0.532   0.558
    38.20    0.559   0.552   0.527   0.527   0.563   0.532   0.536   0.556   0.496   0.504   0.500   0.486   0.510   0.511   0.490   0.532   0.541   0.536   0.566   0.558   0.544   0.530   0.501   0.494   0.508   0.528   0.577   0.559   0.569   0.566   0.574   0.553   0.546   0.555   0.527
    33.55    0.556   0.540   0.504   0.542   0.549   0.537   0.561   0.538   0.534   0.504   0.482   0.510   0.526   0.542   0.544   0.538   0.535   0.565   0.570   0.556   0.560   0.522   0.498   0.506   0.487   0.511   0.552   0.574   0.571   0.550   0.601   0.584   0.574   0.556   0.543
    28.90    0.518   0.515   0.518   0.521   0.521   0.512   0.531   0.534   0.508   0.503   0.513   0.518   0.507   0.565   0.570   0.573   0.517   0.552   0.535   0.542   0.525   0.508   0.511   0.488   0.508   0.517   0.561   0.566   0.601   0.610   0.615   0.594   0.546   0.565   0.547
    24.25    0.534   0.527   0.540   0.530   0.514   0.499   0.506   0.531   0.525   0.513   0.528   0.507   0.533   0.562   0.581   0.569   0.539   0.539   0.536   0.533   0.501   0.473   0.507   0.497   0.501   0.539   0.563   0.569   0.599   0.598   0.595   0.582   0.549   0.554   0.576
    19.60    0.546   0.540   0.528   0.539   0.517   0.517   0.532   0.520   0.505   0.523   0.531   0.513   0.545   0.537   0.579   0.554   0.545   0.549   0.511   0.520   0.503   0.474   0.500   0.498   0.519   0.556   0.566   0.596   0.592   0.599   0.600   0.577   0.554   0.548   0.542
    14.95    0.544   0.544   0.510   0.517   0.512   0.497   0.521   0.538   0.543   0.514   0.531   0.531   0.530   0.520   0.545   0.559   0.566   0.515   0.529   0.502   0.489   0.462   0.496   0.523   0.521   0.550   0.551   0.570   0.596   0.589   0.583   0.570   0.572   0.553   0.529
    10.30    0.538   0.520   0.500   0.486   0.486   0.506   0.508   0.548   0.527   0.509   0.526   0.490   0.502   0.567   0.556   0.540   0.545   0.549   0.513   0.499   0.484   0.496   0.520   0.537   0.561   0.538   0.539   0.528   0.546   0.543   0.554   0.598   0.566   0.559   0.560
     5.65    0.548   0.534   0.488   0.468   0.460   0.479   0.517   0.529   0.531   0.527   0.503   0.547   0.540   0.575   0.588   0.563   0.544   0.546   0.538   0.521   0.518   0.495   0.521   0.532   0.537   0.547   0.533   0.530   0.537   0.565   0.551   0.567   0.592   0.563   0.555
     1.00    0.529   0.566   0.499   0.486   0.489   0.510   0.501   0.527   0.534   0.550   0.526   0.535   0.550   0.561   0.537   0.562   0.561   0.532   0.536   0.520   0.548   0.508   0.490   0.511   0.522   0.529   0.563   0.556   0.563   0.592   0.612   0.579   0.582   0.558   0.554

   Height   Standard deviation at grid points for the w component:
   168.40    0.363   0.377   0.398   0.389   0.372   0.375   0.380   0.389   0.383   0.375   0.391   0.386   0.403   0.408   0.405   0.394   0.370   0.371   0.355   0.358   0.364   0.366   0.368   0.387   0.380   0.371   0.351   0.365   0.368   0.367   0.374   0.373   0.377   0.376   0.370
   163.75    0.370   0.367   0.388   0.374   0.370   0.360   0.372   0.369   0.376   0.379   0.377   0.377   0.404   0.427   0.409   0.392   0.382   0.363   0.353   0.373   0.378   0.373   0.377   0.381   0.380   0.366   0.357   0.368   0.373   0.367   0.375   0.377   0.382   0.387   0.367
   159.10    0.372   0.371   0.374   0.371   0.360   0.370   0.369   0.372   0.377   0.385   0.376   0.378   0.410   0.402   0.413   0.386   0.372   0.366   0.357   0.366   0.371   0.360   0.367   0.374   0.374   0.363   0.372   0.380   0.372   0.372   0.365   0.383   0.388   0.381   0.367
   154.45    0.362   0.368   0.348   0.362   0.354   0.364   0.357   0.378   0.380   0.389   0.388   0.377   0.388   0.390   0.402   0.375   0.371   0.368   0.369   0.356   0.360   0.362   0.366   0.384   0.387   0.375   0.386   0.377   0.373   0.374   0.371   0.377   0.376   0.372   0.382
   149.80    0.359   0.354   0.357   0.356   0.346   0.346   0.355   0.365   0.373   0.374   0.382   0.364   0.370   0.371   0.375   0.367   0.375   0.363   0.358   0.360   0.348   0.358   0.367   0.385   0.378   0.383   0.387   0.376   0.383   0.384   0.382   0.373   0.376   0.377   0.386
   145.15    0.345   0.349   0.359   0.363   0.358   0.361   0.365   0.374   0.363   0.369   0.383   0.359   0.370   0.383   0.366   0.364   0.373   0.376   0.363   0.354   0.354   0.346   0.355   0.365   0.366   0.370   0.370   0.367   0.363   0.363   0.369   0.364   0.382   0.380   0.384
   140.50    0.341   0.344   0.347   0.345   0.351   0.351   0.359   0.362   0.363   0.357   0.358   0.355   0.364   0.374   0.381   0.371   0.365   0.370   0.373   0.359   0.369   0.361   0.348   0.367   0.372   0.367   0.360   0.361   0.371   0.364   0.361   0.362   0.362   0.377   0.382
   135.85    0.340   0.355   0.352   0.353   0.340   0.351   0.352   0.351   0.357   0.357   0.363   0.363   0.353   0.353   0.361   0.370   0.363   0.366   0.365   0.365   0.375   0.373   0.359   0.363   0.368   0.370   0.372   0.361   0.372   0.367   0.355   0.373   0.380   0.370   0.378
   131.20    0.360   0.355   0.361   0.359   0.342   0.345   0.338   0.343   0.355   0.365   0.371   0.372   0.369   0.368   0.359   0.375   0.371   0.371   0.375   0.380   0.369   0.375   0.362   0.361   0.348   0.349   0.362   0.365   0.369   0.370   0.374   0.371   0.365   0.367   0.367
   126.55    0.345   0.357   0.350   0.349   0.340   0.336   0.334   0.349   0.360   0.377   0.372   0.374   0.359   0.366   0.373   0.357   0.365   0.375   0.375   0.372   0.370   0.372   0.363   0.371   0.354   0.357   0.357   0.369   0.380   0.386   0.380   0.368   0.380   0.371   0.359
   121.90    0.349   0.358   0.358   0.361   0.357   0.342   0.344   0.344   0.364   0.378   0.372   0.355   0.364   0.345   0.367   0.364   0.365   0.360   0.353   0.348   0.359   0.360   0.374   0.361   0.353   0.367   0.381   0.382   0.387   0.394   0.386   0.385   0.369   0.372   0.372
   117.25    0.371   0.361   0.361   0.364   0.358   0.342   0.340   0.344   0.365   0.369   0.364   0.343   0.352   0.357   0.354   0.367   0.339   0.332   0.347   0.350   0.367   0.369   0.369   0.363   0.352   0.359   0.374   0.368   0.380   0.386   0.388   0.386   0.368   0.374   0.383
   112.60    0.358   0.367   0.359   0.356   0.353   0.355   0.337   0.332   0.349   0.355   0.347   0.350   0.353   0.349   0.361   0.368   0.355   0.346   0.361   0.354   0.369   0.372   0.385   0.381   0.357   0.377   0.379   0.362   0.370   0.373   0.364   0.375   0.384   0.383   0.384
   107.95    0.376   0.379   0.364   0.354   0.352   0.354   0.343   0.337   0.348   0.352   0.355   0.360   0.352   0.352   0.344   0.357   0.352   0.343   0.351   0.362   0.352   0.367   0.384   0.365   0.366   0.373   0.377   0.365   0.366   0.369   0.365   0.368   0.379   0.367   0.374
   103.30    0.358   0.372   0.368   0.358   0.352   0.350   0.343   0.343   0.350   0.357   0.354   0.357   0.354   0.343   0.351   0.362   0.357   0.346   0.346   0.351   0.353   0.354   0.358   0.357   0.350   0.363   0.364   0.363   0.362   0.370   0.363   0.366   0.372   0.374   0.389
    98.65    0.347   0.349   0.338   0.344   0.349   0.350   0.335   0.339   0.337   0.358   0.347   0.344   0.343   0.348   0.353   0.367   0.357   0.346   0.355   0.355   0.362   0.354   0.341   0.354   0.346   0.373   0.356   0.361   0.357   0.364   0.341   0.356   0.376   0.370   0.393
    94.00    0.334   0.347   0.341   0.348   0.345   0.333   0.331   0.328   0.318   0.334   0.340   0.338   0.352   0.359   0.348   0.360   0.352   0.359   0.366   0.352   0.366   0.357   0.349   0.354   0.366   0.362   0.366   0.349   0.347   0.351   0.338   0.358   0.364   0.369   0.387
    89.35    0.347   0.351   0.342   0.351   0.332   0.331   0.339   0.328   0.331   0.332   0.341   0.344   0.353   0.358   0.340   0.352   0.361   0.363   0.378   0.379   0.354   0.333   0.350   0.361   0.362   0.357   0.348   0.340   0.345   0.349   0.349   0.357   0.371   0.372   0.374
    84.70    0.355   0.349   0.353   0.353   0.337   0.336   0.344   0.334   0.332   0.338   0.338   0.331   0.342   0.359   0.358   0.371   0.377   0.378   0.360   0.356   0.350   0.337   0.341   0.350   0.349   0.349   0.345   0.328   0.332   0.332   0.351   0.349   0.361   0.357   0.373
    80.05    0.361   0.345   0.345   0.351   0.341   0.333   0.337   0.340   0.334   0.337   0.343   0.340   0.354   0.362   0.368   0.372   0.382   0.388   0.376   0.350   0.341   0.326   0.335   0.332   0.340   0.341   0.333   0.333   0.328   0.326   0.343   0.351   0.352   0.362   0.374
    75.40    0.354   0.333   0.340   0.339   0.343   0.340   0.340   0.340   0.344   0.342   0.345   0.352   0.355   0.357   0.362   0.363   0.370   0.376   0.372   0.356   0.347   0.335   0.344   0.351   0.341   0.335   0.335   0.340   0.332   0.342   0.343   0.338   0.353   0.357   0.368
    70.75    0.352   0.350   0.363   0.337   0.339   0.329   0.334   0.357   0.361   0.348   0.348   0.348   0.355   0.351   0.367   0.355   0.378   0.371   0.370   0.354   0.341   0.340   0.338   0.343   0.341   0.333   0.342   0.331   0.318   0.338   0.346   0.347   0.340   0.340   0.354
    66.10    0.360   0.366   0.356   0.344   0.351   0.354   0.345   0.365   0.366   0.361   0.351   0.361   0.345   0.357   0.356   0.359   0.378   0.374   0.367   0.357   0.346   0.340   0.326   0.343   0.343   0.339   0.324   0.319   0.316   0.333   0.341   0.332   0.328   0.351   0.348
    61.45    0.367   0.370   0.356   0.344   0.345   0.344   0.347   0.359   0.359   0.359   0.347   0.354   0.360   0.359   0.355   0.364   0.356   0.357   0.369   0.363   0.341   0.335   0.347   0.360   0.351   0.350   0.332   0.336   0.332   0.330   0.346   0.333   0.340   0.352   0.350
    56.80    0.356   0.366   0.366   0.353   0.350   0.341   0.355   0.362   0.350   0.355   0.365   0.348   0.358   0.342   0.344   0.353   0.347   0.363   0.374   0.355   0.353   0.341   0.351   0.363   0.354   0.340   0.343   0.334   0.334   0.332   0.341   0.346   0.354   0.351   0.345
    52.15    0.357   0.348   0.347   0.358   0.353   0.342   0.359   0.353   0.351   0.363   0.355   0.359   0.341   0.364   0.353   0.352   0.349   0.364   0.361   0.356   0.346   0.346   0.346   0.359   0.359   0.345   0.350   0.344   0.333   0.343   0.332   0.339   0.350   0.353   0.340
    47.50    0.338   0.343   0.340   0.350   0.347   0.347   0.345   0.347   0.346   0.347   0.343   0.361   0.336   0.349   0.350   0.342   0.350   0.352   0.355   0.348   0.358   0.359   0.358   0.350   0.355   0.340   0.359   0.345   0.327   0.325   0.340   0.340   0.342   0.350   0.349
    42.85    0.347   0.337   0.342   0.342   0.335   0.342   0.348   0.345   0.360   0.350   0.345   0.357   0.360   0.344   0.345   0.341   0.331   0.341   0.351   0.363   0.346   0.350   0.359   0.354   0.355   0.345   0.331   0.341   0.325   0.332   0.343   0.348   0.350   0.370   0.359
    38.20    0.339   0.346   0.354   0.344   0.348   0.354   0.354   0.331   0.339   0.352   0.353   0.358   0.356   0.356   0.341   0.344   0.339   0.345   0.348   0.353   0.346   0.348   0.346   0.346   0.359   0.341   0.330   0.342   0.346   0.348   0.351   0.360   0.347   0.350   0.364
    33.55    0.340   0.346   0.355   0.356   0.350   0.337   0.345   0.327   0.344   0.368   0.351   0.344   0.361   0.342   0.345   0.353   0.334   0.345   0.340   0.343   0.344   0.340   0.350   0.358   0.354   0.349   0.348   0.343   0.345   0.360   0.366   0.351   0.346   0.347   0.362
    28.90    0.337   0.344   0.349   0.353   0.358   0.341   0.341   0.338   0.340   0.362   0.353   0.358   0.361   0.357   0.364   0.350   0.338   0.343   0.347   0.347   0.357   0.349   0.367   0.364   0.364   0.360   0.344   0.340   0.363   0.373   0.362   0.342   0.347   0.338   0.357
    24.25    0.346   0.354   0.338   0.347   0.358   0.352   0.349   0.344   0.357   0.360   0.360   0.345   0.350   0.355   0.363   0.354   0.357   0.346   0.353   0.365   0.368   0.354   0.357   0.356   0.353   0.342   0.342   0.352   0.358   0.355   0.360   0.352   0.339   0.350   0.358
    19.60    0.352   0.346   0.344   0.348   0.347   0.355   0.344   0.348   0.353   0.347   0.358   0.356   0.355   0.370   0.370   0.358   0.363   0.340   0.343   0.357   0.368   0.374   0.371   0.343   0.351   0.343   0.351   0.355   0.359   0.357   0.353   0.358   0.360   0.364   0.387
    14.95    0.345   0.344   0.351   0.349   0.346   0.346   0.339   0.338   0.343   0.338   0.353   0.343   0.348   0.352   0.358   0.352   0.348   0.345   0.351   0.365   0.378   0.375   0.353   0.364   0.352   0.346   0.352   0.362   0.361   0.361   0.376   0.360   0.356   0.373   0.386
    10.30    0.358   0.360   0.363   0.354   0.349   0.342   0.341   0.348   0.348   0.353   0.349   0.336   0.347   0.360   0.357   0.355   0.343   0.337   0.342   0.362   0.372   0.368   0.366   0.352   0.351   0.354   0.354   0.367   0.377   0.363   0.365   0.362   0.350   0.365   0.384
     5.65    0.352   0.355   0.363   0.350   0.360   0.339   0.341   0.342   0.342   0.336   0.360   0.350   0.363   0.359   0.347   0.360   0.348   0.349   0.355   0.371   0.374   0.376   0.359   0.346   0.342   0.352   0.360   0.364   0.374   0.364   0.364   0.359   0.348   0.358   0.373
     1.00    0.348   0.363   0.361   0.356   0.360   0.357   0.345   0.355   0.355   0.357   0.361   0.356   0.354   0.353   0.355   0.358   0.345   0.359   0.353   0.360   0.371   0.355   0.350   0.335   0.339   0.360   0.358   0.366   0.359   0.360   0.361   0.364   0.369   0.364   0.368

   Mean standard deviation across all grid points:
      u component:    0.967 m/s
      v component:    0.539 m/s
      w component:    0.357 m/s


U-component (X) statistics from the interpolated hub point:

   Mean =   9.9913 m/s
   TI   =   8.6364 %


Processing complete.  6351 CPU seconds used.
