
This summary file was generated by TurbSim (from OpenFAST-v3.5.3) on 20-Apr-2025 at 09:34:38.


Runtime Options:

**********  Random seed #1
    RANLUX  Type of random number generator
         F  Output binary HH turbulence parameters?
         F  Output formatted turbulence parameters?
         F  Output AeroDyn HH files?
         T  Output AeroDyn FF files?
         F  Output BLADED FF files?
         F  Output tower data?
         F  Output HAWC FF files?
         F  Output formatted FF files?
         T  Output coherent turbulence time step file?
 0 -  NONE  IEC turbulence models scaled to exact specified standard deviation


Turbine/Model Specifications:

        37  Vertical grid-point matrix dimension
        35  Horizontal grid-point matrix dimension
     0.250  Time step [seconds]
   900.000  Analysis time [seconds]
   900.000  Usable output time [seconds]
    89.350  Hub height [m]
   167.400  Grid height [m]
   158.100  Grid width [m]
     0.000  Vertical flow angle [degrees]
     0.000  Horizontal flow angle [degrees]


Meteorological Boundary Conditions:

    TIMESR  User-input time series spectral model
       N/A  IEC standard
       N/A  IEC turbulence characteristic
       N/A  IEC turbulence type
       N/A  IEC Extreme Turbulence Model (ETM) "c" parameter [m/s]
       PL   Wind profile type
    90.000  Reference height [m]
    10.000  Reference wind speed [m/s]
       N/A  Jet height [m]
     0.120  Power law exponent
     0.030  Surface roughness length [m]


Non-IEC Meteorological Boundary Conditions:

    45.000  Site latitude [degrees]
     0.050  Gradient Richardson number
     0.480  Friction or shear velocity [m/s]
       N/A  Mixing layer depth [m]
       N/A  Mean hub u'w' Reynolds stress
       N/A  Mean hub u'v' Reynolds stress
       N/A  Mean hub v'w' Reynolds stress


Spatial Coherence Models:

       IEC  u-component coherence model
       IEC  v-component coherence model
       IEC  w-component coherence model
(   12.000, 0.353E-03)  u-component coherence parameters
(   12.000, 0.353E-03)  v-component coherence parameters
(   12.000, 0.353E-03)  w-component coherence parameters
       N/A  Coherence exponent


Coherent Turbulence Scaling Parameters:

.\EventData
            Name of the path containing the coherent turbulence data files
       les  Type of coherent turbulence data files
     1.000  Disturbance scale (ratio of wave height to rotor diameter)
     0.500  Fractional location of tower centerline from right
     0.500  Fractional location of hub height from the bottom of the dataset
    30.000  Minimum start time for coherent structures [seconds]


Profiles from User-Defined Time-Series Input:

  Height   Wind Speed   Horizontal Angle   Vertical Angle
   (m)        (m/s)          (deg)              (deg)    
  ------   ----------   ----------------   --------------
   94.00      10.00          -0.63               -0.00


You have requested that the following file(s) be generated:

   /kfs3/scratch/agupta/Projects/RL_Incubator/FinalRuns_Veer/Seed4/./FFSim_Seed4/Cond00_v10.0_PL0.12_TI4.0/Case2_wdirp04/Seed_7/TurbSim/HighT6.bts (AeroDyn/TurbSim full-field wind file)


Turbulence Simulation Scaling Parameter Summary:

   Turbulence model used                            =  User-input time series
   Gradient Richardson number                       =    0.050
   Monin-Obukhov (M-O) z/L parameter                =    0.067
   Monin-Obukhov (M-O) length scale                 = 1340.250 m
   Mean wind speed at hub height                    =    9.991 m/s

   Wind profile type                                =  Power law
   Power law exponent                               =    0.120
   Mean shear across rotor disk                     =    0.019 (m/s)/m
   Assumed rotor diameter                           =  158.100 m
   Surface roughness length                         =    0.030 m

   Nyquist frequency of turbulent wind field        =    2.000 Hz

   Number of time steps in the FFT                  =     3600
   Number of time steps output                      =     3600
   Number of points simulated                       =     1296


Mean Flow Angles:

   Vertical   =   0.0 degrees
   Horizontal =   0.0 degrees

Mean Wind Speed Profile:

   Height    Wind Speed   Horizontal Angle  Vertical Angle  U-comp (X)   V-comp (Y)   W-comp (Z)
     (m)        (m/s)         (degrees)       (degrees)       (m/s)        (m/s)        (m/s)   
   ------    ----------   ----------------  --------------  ----------   ----------   ----------
    168.4       10.78            0.00            0.00         10.78         0.00         0.00
    163.7       10.74            0.00            0.00         10.74         0.00         0.00
    159.1       10.71            0.00            0.00         10.71         0.00         0.00
    154.4       10.67            0.00            0.00         10.67         0.00         0.00
    149.8       10.63            0.00            0.00         10.63         0.00         0.00
    145.1       10.59            0.00            0.00         10.59         0.00         0.00
    140.5       10.55            0.00            0.00         10.55         0.00         0.00
    135.8       10.51            0.00            0.00         10.51         0.00         0.00
    131.2       10.46            0.00            0.00         10.46         0.00         0.00
    126.5       10.42            0.00            0.00         10.42         0.00         0.00
    121.9       10.37            0.00            0.00         10.37         0.00         0.00
    117.2       10.32            0.00            0.00         10.32         0.00         0.00
    112.6       10.27            0.00            0.00         10.27         0.00         0.00
    107.9       10.22            0.00            0.00         10.22         0.00         0.00
    103.3       10.17            0.00            0.00         10.17         0.00         0.00
     98.6       10.11            0.00            0.00         10.11         0.00         0.00
     94.0       10.05            0.00            0.00         10.05         0.00         0.00
     89.3        9.99            0.00            0.00          9.99         0.00         0.00
     84.7        9.93            0.00            0.00          9.93         0.00         0.00
     80.0        9.86            0.00            0.00          9.86         0.00         0.00
     75.4        9.79            0.00            0.00          9.79         0.00         0.00
     70.7        9.72            0.00            0.00          9.72         0.00         0.00
     66.1        9.64            0.00            0.00          9.64         0.00         0.00
     61.4        9.55            0.00            0.00          9.55         0.00         0.00
     56.8        9.46            0.00            0.00          9.46         0.00         0.00
     52.1        9.37            0.00            0.00          9.37         0.00         0.00
     47.5        9.26            0.00            0.00          9.26         0.00         0.00
     42.8        9.15            0.00            0.00          9.15         0.00         0.00
     38.2        9.02            0.00            0.00          9.02         0.00         0.00
     33.5        8.88            0.00            0.00          8.88         0.00         0.00
     28.9        8.73            0.00            0.00          8.73         0.00         0.00
     24.2        8.54            0.00            0.00          8.54         0.00         0.00
     19.6        8.33            0.00            0.00          8.33         0.00         0.00
     14.9        8.06            0.00            0.00          8.06         0.00         0.00
     10.3        7.71            0.00            0.00          7.71         0.00         0.00
      5.6        7.17            0.00            0.00          7.17         0.00         0.00
      1.0        5.83            0.00            0.00          5.83         0.00         0.00


Harvested Random Seeds after Generation of the Random Numbers:

     65026800 K 1
            0 K 2


Hub-Height Simulated Turbulence Statistical Summary:

   Type of Wind        Min (m/s)   Mean (m/s)    Max (m/s)  Sigma (m/s)       TI (%)
   ----------------    ---------   ----------    ---------  -----------       ------
   Longitudinal (u)         8.86         9.99        11.21        0.367        3.673
   Lateral (v)             -1.08         0.00         1.39        0.361        3.616
   Vertical (w)            -0.61         0.00         0.70        0.189        1.897
   U component              8.86         9.99        11.21        0.367        3.673
   V component             -1.08         0.00         1.39        0.361        3.616
   W component             -0.61         0.00         0.70        0.189        1.897
   Horizontal (U&V)         8.86        10.00        11.22        0.367        3.669
   Total                    8.86        10.00        11.22        0.367        3.667

                       Min Reynolds     Mean Reynolds    Max Reynolds    Correlation
   Product             Stress (m/s)^2   Stress (m/s)^2   Stress (m/s)^2  Coefficient
   ----------------    --------------   --------------   --------------  -----------
   u'w'                     -0.422            -0.003             0.402        -0.039
   u'v'                     -0.589            -0.022             0.431        -0.162
   v'w'                     -0.531            -0.002             0.482        -0.025


   Friction Velocity (Ustar)  =      0.052 m/s
   Maximum Instantaneous TKE  =      0.978 (m/s)^2
   Maximum Instantaneous CTKE =      0.340 (m/s)^2


Grid Point Variance Summary:

   Y-coord  -79.05  -74.40  -69.75  -65.10  -60.45  -55.80  -51.15  -46.50  -41.85  -37.20  -32.55  -27.90  -23.25  -18.60  -13.95   -9.30   -4.65    0.00    4.65    9.30   13.95   18.60   23.25   27.90   32.55   37.20   41.85   46.50   51.15   55.80   60.45   65.10   69.75   74.40   79.05

   Height   Standard deviation at grid points for the u component:
   168.40    0.419   0.447   0.432   0.390   0.385   0.387   0.379   0.358   0.348   0.351   0.363   0.366   0.357   0.348   0.347   0.350   0.348   0.340   0.327   0.368   0.370   0.350   0.352   0.374   0.367   0.339   0.359   0.384   0.396   0.391   0.412   0.405   0.394   0.375   0.372
   163.75    0.396   0.412   0.418   0.384   0.380   0.410   0.383   0.381   0.357   0.366   0.362   0.364   0.353   0.336   0.345   0.362   0.340   0.351   0.360   0.357   0.380   0.364   0.355   0.333   0.346   0.344   0.360   0.382   0.393   0.403   0.424   0.406   0.406   0.387   0.376
   159.10    0.373   0.396   0.396   0.399   0.395   0.381   0.390   0.377   0.361   0.360   0.354   0.364   0.361   0.334   0.344   0.348   0.348   0.334   0.370   0.371   0.389   0.363   0.339   0.313   0.318   0.352   0.360   0.366   0.397   0.412   0.413   0.431   0.408   0.388   0.384
   154.45    0.366   0.385   0.377   0.392   0.385   0.374   0.376   0.369   0.365   0.353   0.368   0.338   0.347   0.338   0.355   0.333   0.328   0.331   0.345   0.381   0.388   0.365   0.347   0.336   0.344   0.359   0.364   0.382   0.389   0.405   0.395   0.401   0.395   0.370   0.365
   149.80    0.392   0.390   0.365   0.346   0.353   0.373   0.355   0.375   0.363   0.360   0.363   0.360   0.342   0.331   0.341   0.341   0.338   0.361   0.352   0.373   0.371   0.376   0.379   0.372   0.376   0.364   0.401   0.412   0.386   0.381   0.386   0.371   0.401   0.414   0.364
   145.15    0.411   0.390   0.402   0.364   0.359   0.361   0.356   0.367   0.364   0.364   0.349   0.359   0.343   0.324   0.350   0.341   0.356   0.363   0.377   0.368   0.390   0.399   0.390   0.379   0.392   0.398   0.414   0.390   0.385   0.373   0.378   0.375   0.390   0.412   0.407
   140.50    0.393   0.413   0.405   0.379   0.359   0.346   0.357   0.348   0.350   0.346   0.358   0.350   0.359   0.345   0.357   0.327   0.354   0.360   0.392   0.382   0.386   0.395   0.388   0.388   0.399   0.414   0.394   0.390   0.372   0.397   0.384   0.400   0.405   0.401   0.426
   135.85    0.395   0.390   0.393   0.403   0.402   0.378   0.365   0.367   0.376   0.358   0.384   0.356   0.371   0.360   0.341   0.322   0.352   0.387   0.374   0.399   0.404   0.404   0.382   0.379   0.390   0.378   0.389   0.393   0.395   0.395   0.396   0.391   0.383   0.407   0.416
   131.20    0.374   0.365   0.378   0.416   0.412   0.387   0.359   0.350   0.339   0.350   0.351   0.374   0.381   0.359   0.392   0.359   0.359   0.385   0.416   0.413   0.404   0.391   0.381   0.372   0.382   0.361   0.378   0.383   0.420   0.425   0.416   0.401   0.396   0.406   0.417
   126.55    0.361   0.362   0.384   0.382   0.392   0.380   0.331   0.337   0.323   0.323   0.359   0.370   0.369   0.370   0.380   0.383   0.390   0.391   0.403   0.435   0.416   0.397   0.394   0.396   0.367   0.374   0.366   0.375   0.415   0.414   0.418   0.416   0.404   0.389   0.395
   121.90    0.361   0.395   0.349   0.361   0.390   0.388   0.354   0.345   0.340   0.345   0.377   0.408   0.357   0.370   0.372   0.372   0.364   0.372   0.392   0.405   0.377   0.378   0.400   0.400   0.380   0.369   0.376   0.383   0.389   0.401   0.410   0.410   0.420   0.397   0.415
   117.25    0.384   0.381   0.353   0.366   0.362   0.368   0.372   0.353   0.349   0.383   0.395   0.378   0.368   0.373   0.392   0.352   0.358   0.356   0.369   0.374   0.345   0.364   0.366   0.379   0.373   0.368   0.368   0.369   0.384   0.400   0.416   0.396   0.399   0.378   0.386
   112.60    0.358   0.363   0.381   0.375   0.372   0.354   0.353   0.371   0.372   0.388   0.389   0.409   0.395   0.398   0.370   0.363   0.351   0.371   0.372   0.350   0.326   0.358   0.335   0.349   0.355   0.358   0.386   0.359   0.388   0.387   0.395   0.386   0.386   0.391   0.393
   107.95    0.357   0.365   0.371   0.387   0.371   0.379   0.361   0.364   0.379   0.380   0.358   0.377   0.394   0.372   0.363   0.325   0.356   0.386   0.364   0.333   0.344   0.332   0.347   0.345   0.354   0.364   0.385   0.365   0.386   0.380   0.375   0.382   0.373   0.378   0.353
   103.30    0.377   0.359   0.349   0.359   0.361   0.380   0.386   0.364   0.361   0.384   0.356   0.362   0.359   0.386   0.341   0.353   0.370   0.375   0.371   0.363   0.365   0.346   0.361   0.376   0.379   0.397   0.364   0.374   0.406   0.386   0.356   0.348   0.348   0.350   0.345
    98.65    0.374   0.374   0.339   0.341   0.362   0.404   0.401   0.372   0.367   0.373   0.375   0.355   0.337   0.355   0.344   0.360   0.365   0.411   0.378   0.393   0.396   0.358   0.353   0.365   0.369   0.380   0.379   0.382   0.368   0.375   0.351   0.316   0.331   0.336   0.349
    94.00    0.408   0.361   0.342   0.344   0.376   0.386   0.383   0.375   0.389   0.396   0.390   0.380   0.342   0.337   0.348   0.356   0.372   0.387   0.383   0.397   0.392   0.374   0.340   0.358   0.364   0.377   0.368   0.355   0.336   0.362   0.364   0.331   0.319   0.342   0.339
    89.35    0.386   0.372   0.363   0.389   0.356   0.366   0.354   0.348   0.342   0.358   0.350   0.339   0.324   0.346   0.341   0.341   0.354   0.367   0.356   0.350   0.355   0.360   0.343   0.353   0.346   0.357   0.351   0.363   0.337   0.341   0.364   0.355   0.369   0.343   0.347
    84.70    0.384   0.355   0.373   0.358   0.352   0.355   0.350   0.358   0.326   0.340   0.325   0.346   0.330   0.330   0.333   0.346   0.349   0.346   0.364   0.336   0.334   0.368   0.358   0.345   0.330   0.345   0.356   0.348   0.342   0.359   0.355   0.367   0.374   0.391   0.384
    80.05    0.363   0.364   0.345   0.352   0.348   0.365   0.350   0.350   0.336   0.335   0.323   0.340   0.339   0.333   0.322   0.336   0.327   0.338   0.352   0.351   0.359   0.351   0.347   0.352   0.352   0.351   0.364   0.378   0.372   0.381   0.387   0.374   0.379   0.395   0.379
    75.40    0.350   0.345   0.371   0.369   0.374   0.396   0.372   0.350   0.350   0.345   0.353   0.345   0.345   0.340   0.321   0.335   0.343   0.349   0.364   0.349   0.349   0.362   0.343   0.341   0.317   0.361   0.367   0.392   0.380   0.385   0.372   0.371   0.376   0.371   0.381
    70.75    0.368   0.387   0.373   0.365   0.392   0.394   0.369   0.363   0.354   0.369   0.367   0.366   0.355   0.341   0.337   0.345   0.352   0.372   0.392   0.378   0.383   0.402   0.371   0.350   0.351   0.384   0.399   0.380   0.396   0.407   0.369   0.372   0.381   0.358   0.383
    66.10    0.373   0.367   0.370   0.349   0.347   0.373   0.349   0.366   0.363   0.370   0.372   0.373   0.365   0.340   0.346   0.383   0.384   0.390   0.395   0.378   0.386   0.385   0.390   0.381   0.360   0.385   0.395   0.387   0.363   0.382   0.385   0.375   0.343   0.380   0.397
    61.45    0.361   0.344   0.357   0.372   0.359   0.352   0.350   0.353   0.359   0.366   0.361   0.390   0.389   0.377   0.376   0.398   0.391   0.392   0.391   0.402   0.386   0.363   0.382   0.411   0.378   0.369   0.372   0.396   0.381   0.369   0.378   0.370   0.375   0.376   0.367
    56.80    0.368   0.359   0.373   0.355   0.344   0.341   0.322   0.329   0.324   0.350   0.377   0.383   0.369   0.369   0.378   0.382   0.414   0.399   0.411   0.402   0.398   0.386   0.399   0.403   0.395   0.377   0.389   0.395   0.380   0.372   0.381   0.378   0.382   0.367   0.363
    52.15    0.357   0.355   0.379   0.363   0.353   0.334   0.335   0.311   0.321   0.356   0.369   0.355   0.379   0.351   0.369   0.368   0.358   0.382   0.393   0.370   0.400   0.373   0.405   0.385   0.386   0.386   0.417   0.408   0.383   0.390   0.390   0.371   0.388   0.375   0.373
    47.50    0.361   0.347   0.362   0.346   0.358   0.330   0.332   0.338   0.370   0.368   0.364   0.358   0.344   0.373   0.349   0.353   0.348   0.369   0.369   0.386   0.378   0.369   0.384   0.376   0.397   0.395   0.420   0.415   0.400   0.399   0.392   0.382   0.399   0.404   0.398
    42.85    0.380   0.392   0.365   0.340   0.354   0.365   0.356   0.396   0.373   0.379   0.366   0.370   0.368   0.365   0.334   0.357   0.345   0.341   0.383   0.365   0.382   0.389   0.392   0.376   0.394   0.409   0.402   0.399   0.398   0.367   0.381   0.398   0.388   0.419   0.410
    38.20    0.392   0.385   0.368   0.337   0.342   0.357   0.364   0.380   0.378   0.383   0.365   0.375   0.337   0.335   0.358   0.355   0.358   0.338   0.365   0.382   0.376   0.391   0.380   0.391   0.414   0.387   0.423   0.392   0.368   0.372   0.370   0.383   0.380   0.405   0.402
    33.55    0.385   0.385   0.366   0.353   0.347   0.363   0.386   0.380   0.367   0.377   0.369   0.351   0.335   0.338   0.363   0.358   0.347   0.375   0.379   0.385   0.383   0.387   0.384   0.410   0.415   0.407   0.428   0.411   0.368   0.367   0.350   0.342   0.356   0.394   0.405
    28.90    0.371   0.385   0.373   0.381   0.363   0.373   0.383   0.365   0.368   0.376   0.387   0.355   0.349   0.345   0.358   0.351   0.371   0.376   0.379   0.385   0.378   0.392   0.377   0.416   0.423   0.420   0.409   0.404   0.370   0.354   0.346   0.340   0.357   0.379   0.391
    24.25    0.371   0.381   0.384   0.385   0.367   0.363   0.370   0.396   0.387   0.387   0.383   0.378   0.335   0.343   0.320   0.346   0.355   0.378   0.352   0.357   0.392   0.383   0.387   0.380   0.396   0.389   0.376   0.367   0.356   0.342   0.331   0.344   0.352   0.385   0.380
    19.60    0.376   0.375   0.355   0.395   0.413   0.383   0.376   0.377   0.364   0.385   0.382   0.377   0.347   0.347   0.324   0.349   0.354   0.360   0.366   0.373   0.378   0.372   0.366   0.369   0.362   0.376   0.389   0.375   0.377   0.350   0.346   0.374   0.384   0.389   0.414
    14.95    0.375   0.390   0.371   0.411   0.417   0.396   0.378   0.350   0.342   0.367   0.376   0.352   0.344   0.345   0.341   0.342   0.364   0.365   0.360   0.358   0.353   0.351   0.347   0.347   0.337   0.366   0.377   0.373   0.359   0.371   0.372   0.372   0.396   0.410   0.412
    10.30    0.366   0.370   0.395   0.407   0.419   0.412   0.387   0.356   0.348   0.363   0.335   0.341   0.354   0.348   0.354   0.357   0.354   0.355   0.352   0.357   0.342   0.324   0.321   0.330   0.322   0.339   0.350   0.362   0.366   0.384   0.386   0.372   0.391   0.409   0.428
     5.65    0.379   0.379   0.400   0.410   0.415   0.430   0.402   0.367   0.344   0.351   0.355   0.352   0.328   0.339   0.343   0.342   0.356   0.375   0.357   0.333   0.331   0.324   0.327   0.319   0.332   0.326   0.351   0.352   0.364   0.359   0.380   0.376   0.387   0.412   0.402
     1.00    0.382   0.375   0.390   0.408   0.417   0.438   0.399   0.362   0.347   0.357   0.386   0.369   0.352   0.339   0.348   0.365   0.378   0.382   0.348   0.344   0.341   0.306   0.297   0.327   0.340   0.347   0.361   0.363   0.356   0.372   0.387   0.378   0.398   0.406   0.407

   Height   Standard deviation at grid points for the v component:
   168.40    0.369   0.372   0.381   0.392   0.383   0.378   0.367   0.395   0.366   0.374   0.397   0.395   0.404   0.375   0.376   0.382   0.386   0.394   0.380   0.354   0.364   0.341   0.335   0.347   0.362   0.374   0.405   0.409   0.420   0.441   0.421   0.412   0.432   0.432   0.406
   163.75    0.370   0.365   0.378   0.391   0.378   0.390   0.382   0.390   0.394   0.384   0.405   0.399   0.407   0.383   0.381   0.395   0.399   0.390   0.388   0.381   0.372   0.362   0.350   0.339   0.377   0.386   0.390   0.410   0.425   0.436   0.431   0.438   0.452   0.430   0.428
   159.10    0.370   0.378   0.366   0.359   0.393   0.372   0.382   0.409   0.413   0.389   0.396   0.403   0.413   0.386   0.379   0.396   0.397   0.382   0.402   0.389   0.388   0.391   0.379   0.373   0.388   0.391   0.390   0.396   0.417   0.437   0.439   0.446   0.469   0.462   0.455
   154.45    0.366   0.372   0.387   0.404   0.378   0.395   0.379   0.406   0.398   0.399   0.382   0.398   0.410   0.393   0.380   0.379   0.377   0.379   0.394   0.384   0.413   0.396   0.367   0.375   0.403   0.401   0.400   0.400   0.430   0.428   0.430   0.446   0.451   0.431   0.452
   149.80    0.351   0.361   0.368   0.378   0.395   0.390   0.397   0.375   0.398   0.392   0.393   0.385   0.414   0.397   0.400   0.396   0.380   0.388   0.396   0.387   0.417   0.407   0.374   0.385   0.401   0.403   0.391   0.397   0.401   0.431   0.431   0.429   0.433   0.438   0.435
   145.15    0.341   0.354   0.366   0.373   0.372   0.372   0.369   0.354   0.371   0.385   0.385   0.380   0.392   0.404   0.399   0.387   0.399   0.401   0.387   0.398   0.403   0.381   0.389   0.394   0.393   0.406   0.390   0.397   0.390   0.418   0.427   0.423   0.444   0.443   0.411
   140.50    0.348   0.350   0.371   0.359   0.361   0.371   0.354   0.375   0.361   0.361   0.359   0.377   0.403   0.398   0.406   0.409   0.419   0.421   0.404   0.386   0.410   0.398   0.389   0.389   0.386   0.420   0.425   0.412   0.415   0.408   0.421   0.426   0.432   0.412   0.400
   135.85    0.363   0.364   0.361   0.356   0.363   0.349   0.349   0.360   0.351   0.341   0.355   0.370   0.379   0.388   0.408   0.417   0.406   0.411   0.403   0.401   0.393   0.397   0.394   0.382   0.390   0.409   0.444   0.433   0.420   0.424   0.420   0.402   0.399   0.407   0.408
   131.20    0.361   0.358   0.336   0.354   0.353   0.344   0.345   0.346   0.330   0.346   0.362   0.385   0.394   0.405   0.417   0.427   0.414   0.407   0.398   0.399   0.414   0.389   0.394   0.379   0.398   0.421   0.416   0.418   0.417   0.424   0.423   0.405   0.401   0.395   0.403
   126.55    0.360   0.371   0.347   0.343   0.358   0.371   0.341   0.335   0.330   0.338   0.360   0.371   0.388   0.389   0.382   0.404   0.405   0.398   0.378   0.377   0.403   0.396   0.385   0.370   0.398   0.401   0.416   0.404   0.398   0.423   0.438   0.417   0.411   0.404   0.402
   121.90    0.352   0.368   0.356   0.335   0.351   0.368   0.356   0.325   0.325   0.349   0.352   0.357   0.351   0.374   0.369   0.392   0.404   0.423   0.385   0.373   0.382   0.387   0.377   0.384   0.392   0.414   0.408   0.396   0.385   0.405   0.413   0.412   0.405   0.399   0.402
   117.25    0.343   0.349   0.353   0.331   0.332   0.354   0.345   0.335   0.339   0.349   0.350   0.355   0.366   0.378   0.385   0.370   0.404   0.414   0.375   0.390   0.368   0.388   0.382   0.378   0.387   0.397   0.398   0.409   0.407   0.432   0.422   0.401   0.393   0.381   0.381
   112.60    0.360   0.335   0.325   0.343   0.332   0.339   0.348   0.345   0.330   0.348   0.358   0.359   0.373   0.374   0.378   0.363   0.386   0.384   0.362   0.371   0.386   0.394   0.385   0.392   0.419   0.403   0.402   0.405   0.416   0.418   0.419   0.390   0.385   0.389   0.369
   107.95    0.362   0.340   0.356   0.336   0.348   0.330   0.329   0.328   0.325   0.343   0.362   0.377   0.362   0.366   0.368   0.374   0.376   0.365   0.347   0.363   0.375   0.389   0.386   0.378   0.397   0.397   0.395   0.400   0.397   0.410   0.388   0.391   0.368   0.378   0.382
   103.30    0.364   0.367   0.359   0.349   0.338   0.337   0.339   0.340   0.334   0.333   0.353   0.348   0.359   0.350   0.343   0.356   0.368   0.352   0.354   0.366   0.365   0.370   0.348   0.365   0.392   0.392   0.395   0.401   0.395   0.408   0.378   0.382   0.381   0.398   0.387
    98.65    0.338   0.342   0.343   0.347   0.340   0.330   0.336   0.333   0.322   0.330   0.350   0.360   0.350   0.346   0.354   0.350   0.341   0.354   0.345   0.339   0.329   0.339   0.363   0.353   0.351   0.377   0.376   0.379   0.396   0.391   0.390   0.391   0.403   0.417   0.389
    94.00    0.331   0.335   0.345   0.331   0.327   0.335   0.330   0.337   0.328   0.343   0.356   0.345   0.353   0.353   0.346   0.336   0.353   0.343   0.332   0.339   0.335   0.334   0.349   0.336   0.349   0.356   0.360   0.362   0.380   0.397   0.391   0.378   0.386   0.392   0.388
    89.35    0.321   0.319   0.331   0.340   0.314   0.326   0.317   0.334   0.347   0.343   0.360   0.358   0.353   0.364   0.361   0.357   0.358   0.361   0.330   0.337   0.323   0.342   0.336   0.322   0.337   0.356   0.360   0.367   0.376   0.381   0.392   0.387   0.397   0.395   0.389
    84.70    0.312   0.309   0.322   0.334   0.316   0.317   0.330   0.329   0.349   0.327   0.336   0.348   0.353   0.373   0.364   0.361   0.363   0.354   0.340   0.339   0.342   0.344   0.332   0.322   0.354   0.357   0.364   0.362   0.367   0.376   0.382   0.387   0.377   0.396   0.388
    80.05    0.285   0.299   0.329   0.321   0.314   0.310   0.319   0.302   0.342   0.330   0.322   0.329   0.354   0.354   0.366   0.331   0.360   0.339   0.349   0.346   0.333   0.342   0.323   0.322   0.332   0.354   0.354   0.348   0.360   0.360   0.381   0.390   0.385   0.379   0.381
    75.40    0.279   0.314   0.312   0.323   0.321   0.304   0.305   0.312   0.335   0.320   0.354   0.337   0.350   0.347   0.343   0.334   0.345   0.340   0.351   0.336   0.319   0.323   0.336   0.344   0.326   0.321   0.357   0.352   0.335   0.352   0.368   0.387   0.392   0.392   0.375
    70.75    0.305   0.304   0.327   0.326   0.325   0.316   0.318   0.318   0.335   0.344   0.354   0.350   0.331   0.333   0.354   0.339   0.348   0.342   0.343   0.326   0.315   0.325   0.352   0.344   0.339   0.332   0.332   0.360   0.343   0.370   0.367   0.386   0.401   0.382   0.375
    66.10    0.316   0.327   0.313   0.318   0.303   0.301   0.305   0.302   0.337   0.333   0.358   0.340   0.319   0.335   0.327   0.342   0.336   0.333   0.340   0.330   0.320   0.334   0.341   0.341   0.345   0.343   0.338   0.334   0.349   0.360   0.375   0.390   0.367   0.359   0.352
    61.45    0.348   0.329   0.307   0.315   0.315   0.294   0.281   0.304   0.316   0.324   0.339   0.340   0.311   0.314   0.338   0.332   0.338   0.340   0.348   0.345   0.340   0.324   0.337   0.347   0.341   0.354   0.346   0.338   0.341   0.334   0.348   0.351   0.351   0.346   0.340
    56.80    0.337   0.343   0.323   0.331   0.329   0.323   0.317   0.334   0.347   0.348   0.338   0.325   0.311   0.323   0.333   0.342   0.341   0.336   0.340   0.337   0.346   0.324   0.317   0.341   0.352   0.342   0.345   0.324   0.324   0.330   0.361   0.347   0.337   0.345   0.333
    52.15    0.324   0.344   0.336   0.327   0.324   0.325   0.308   0.330   0.349   0.329   0.324   0.324   0.309   0.327   0.320   0.346   0.336   0.333   0.329   0.339   0.335   0.339   0.335   0.358   0.354   0.362   0.335   0.345   0.345   0.362   0.362   0.359   0.359   0.342   0.335
    47.50    0.331   0.338   0.343   0.325   0.330   0.328   0.343   0.346   0.325   0.327   0.329   0.304   0.307   0.319   0.331   0.349   0.344   0.333   0.342   0.352   0.351   0.357   0.353   0.367   0.372   0.356   0.351   0.347   0.346   0.359   0.360   0.358   0.359   0.341   0.352
    42.85    0.327   0.333   0.322   0.306   0.310   0.316   0.326   0.318   0.317   0.320   0.333   0.322   0.314   0.322   0.333   0.352   0.346   0.343   0.338   0.349   0.354   0.366   0.361   0.365   0.385   0.367   0.350   0.347   0.350   0.377   0.376   0.371   0.357   0.368   0.363
    38.20    0.325   0.325   0.309   0.311   0.329   0.315   0.319   0.333   0.308   0.318   0.321   0.330   0.324   0.329   0.332   0.335   0.348   0.359   0.343   0.340   0.368   0.375   0.350   0.347   0.371   0.347   0.352   0.352   0.361   0.351   0.360   0.368   0.362   0.355   0.347
    33.55    0.321   0.327   0.312   0.316   0.323   0.306   0.324   0.339   0.339   0.322   0.317   0.321   0.329   0.339   0.348   0.333   0.354   0.363   0.340   0.348   0.364   0.354   0.348   0.359   0.336   0.341   0.363   0.366   0.361   0.342   0.374   0.378   0.379   0.352   0.330
    28.90    0.300   0.328   0.318   0.326   0.326   0.333   0.324   0.332   0.337   0.312   0.332   0.349   0.323   0.357   0.356   0.354   0.336   0.366   0.362   0.352   0.345   0.348   0.377   0.368   0.353   0.351   0.343   0.355   0.350   0.360   0.369   0.384   0.364   0.360   0.339
    24.25    0.332   0.329   0.326   0.305   0.307   0.311   0.309   0.323   0.321   0.332   0.334   0.339   0.335   0.349   0.347   0.350   0.341   0.341   0.331   0.344   0.345   0.336   0.357   0.357   0.336   0.364   0.365   0.344   0.370   0.358   0.359   0.356   0.367   0.355   0.367
    19.60    0.353   0.338   0.313   0.300   0.316   0.316   0.335   0.328   0.330   0.351   0.343   0.354   0.351   0.352   0.347   0.348   0.348   0.339   0.314   0.316   0.320   0.336   0.353   0.345   0.362   0.366   0.375   0.365   0.370   0.363   0.357   0.366   0.354   0.372   0.368
    14.95    0.360   0.349   0.313   0.317   0.313   0.314   0.327   0.340   0.355   0.359   0.362   0.365   0.368   0.356   0.353   0.362   0.359   0.336   0.346   0.329   0.331   0.334   0.356   0.367   0.367   0.382   0.363   0.351   0.371   0.366   0.378   0.376   0.387   0.383   0.372
    10.30    0.356   0.342   0.326   0.312   0.317   0.324   0.334   0.345   0.357   0.346   0.355   0.359   0.375   0.386   0.390   0.375   0.384   0.377   0.353   0.343   0.347   0.369   0.376   0.370   0.390   0.391   0.369   0.350   0.363   0.362   0.359   0.388   0.389   0.386   0.405
     5.65    0.373   0.344   0.322   0.311   0.314   0.330   0.345   0.363   0.361   0.362   0.340   0.382   0.399   0.414   0.415   0.386   0.392   0.383   0.360   0.360   0.388   0.382   0.385   0.378   0.388   0.402   0.373   0.354   0.363   0.369   0.358   0.383   0.380   0.397   0.393
     1.00    0.360   0.340   0.318   0.332   0.327   0.346   0.360   0.370   0.359   0.377   0.345   0.367   0.387   0.405   0.393   0.396   0.413   0.387   0.382   0.388   0.410   0.389   0.388   0.390   0.385   0.387   0.402   0.383   0.379   0.381   0.400   0.401   0.394   0.386   0.405

   Height   Standard deviation at grid points for the w component:
   168.40    0.206   0.207   0.212   0.209   0.204   0.197   0.198   0.199   0.195   0.194   0.199   0.191   0.197   0.198   0.194   0.193   0.182   0.192   0.188   0.194   0.191   0.190   0.186   0.195   0.192   0.196   0.184   0.192   0.193   0.195   0.194   0.193   0.198   0.195   0.190
   163.75    0.201   0.203   0.208   0.203   0.207   0.193   0.201   0.197   0.200   0.197   0.194   0.190   0.197   0.206   0.199   0.189   0.201   0.199   0.192   0.197   0.197   0.197   0.196   0.199   0.193   0.191   0.189   0.197   0.196   0.198   0.196   0.195   0.201   0.202   0.192
   159.10    0.205   0.204   0.209   0.202   0.199   0.195   0.200   0.197   0.200   0.199   0.193   0.188   0.200   0.199   0.201   0.193   0.199   0.210   0.202   0.198   0.197   0.190   0.194   0.199   0.192   0.190   0.197   0.199   0.199   0.201   0.196   0.198   0.203   0.197   0.195
   154.45    0.201   0.203   0.202   0.204   0.201   0.202   0.199   0.198   0.195   0.200   0.193   0.192   0.198   0.192   0.201   0.201   0.192   0.199   0.205   0.200   0.189   0.195   0.199   0.202   0.196   0.192   0.192   0.192   0.195   0.198   0.197   0.200   0.204   0.195   0.201
   149.80    0.198   0.202   0.195   0.203   0.198   0.191   0.193   0.193   0.194   0.195   0.196   0.192   0.193   0.188   0.191   0.187   0.192   0.189   0.194   0.197   0.186   0.183   0.192   0.198   0.197   0.192   0.191   0.194   0.192   0.196   0.200   0.199   0.202   0.193   0.204
   145.15    0.194   0.195   0.198   0.201   0.204   0.199   0.197   0.198   0.193   0.195   0.199   0.191   0.198   0.201   0.197   0.194   0.196   0.193   0.190   0.192   0.185   0.191   0.189   0.196   0.195   0.191   0.191   0.187   0.188   0.185   0.191   0.193   0.200   0.199   0.197
   140.50    0.192   0.193   0.186   0.188   0.192   0.192   0.194   0.193   0.195   0.198   0.196   0.197   0.202   0.201   0.203   0.200   0.190   0.192   0.192   0.194   0.197   0.196   0.192   0.197   0.201   0.196   0.195   0.192   0.190   0.186   0.188   0.192   0.193   0.194   0.201
   135.85    0.189   0.190   0.191   0.192   0.190   0.194   0.191   0.191   0.197   0.201   0.200   0.203   0.202   0.201   0.201   0.197   0.190   0.188   0.187   0.192   0.200   0.198   0.191   0.199   0.197   0.195   0.195   0.190   0.192   0.190   0.188   0.196   0.200   0.194   0.193
   131.20    0.188   0.190   0.192   0.197   0.193   0.195   0.185   0.189   0.189   0.200   0.205   0.214   0.208   0.203   0.200   0.193   0.191   0.188   0.191   0.194   0.192   0.195   0.194   0.198   0.197   0.193   0.187   0.187   0.194   0.196   0.197   0.205   0.196   0.196   0.192
   126.55    0.184   0.191   0.194   0.194   0.195   0.194   0.187   0.186   0.196   0.202   0.210   0.210   0.201   0.201   0.201   0.189   0.182   0.189   0.189   0.191   0.192   0.195   0.194   0.199   0.195   0.196   0.190   0.192   0.194   0.198   0.198   0.199   0.198   0.195   0.192
   121.90    0.192   0.196   0.198   0.198   0.198   0.189   0.190   0.195   0.202   0.208   0.204   0.206   0.203   0.187   0.192   0.187   0.187   0.183   0.185   0.186   0.191   0.190   0.201   0.194   0.198   0.197   0.197   0.195   0.192   0.199   0.205   0.199   0.197   0.198   0.195
   117.25    0.201   0.196   0.199   0.202   0.197   0.190   0.188   0.190   0.198   0.192   0.198   0.196   0.193   0.188   0.183   0.189   0.180   0.173   0.181   0.181   0.191   0.199   0.196   0.198   0.198   0.199   0.196   0.190   0.190   0.194   0.200   0.198   0.188   0.197   0.205
   112.60    0.196   0.197   0.199   0.197   0.194   0.194   0.192   0.186   0.189   0.191   0.192   0.190   0.195   0.192   0.186   0.186   0.178   0.181   0.186   0.187   0.196   0.198   0.202   0.202   0.195   0.196   0.195   0.186   0.195   0.200   0.190   0.195   0.194   0.196   0.199
   107.95    0.198   0.202   0.200   0.196   0.189   0.195   0.191   0.186   0.187   0.185   0.188   0.191   0.188   0.185   0.179   0.181   0.184   0.182   0.190   0.187   0.190   0.197   0.203   0.196   0.195   0.190   0.192   0.187   0.198   0.199   0.193   0.193   0.196   0.195   0.195
   103.30    0.190   0.195   0.199   0.193   0.187   0.187   0.185   0.181   0.182   0.181   0.186   0.190   0.191   0.176   0.182   0.185   0.186   0.189   0.190   0.193   0.189   0.193   0.193   0.197   0.192   0.197   0.194   0.197   0.193   0.198   0.196   0.193   0.198   0.196   0.204
    98.65    0.192   0.188   0.185   0.184   0.185   0.186   0.179   0.178   0.177   0.180   0.182   0.184   0.180   0.181   0.185   0.187   0.189   0.191   0.197   0.188   0.195   0.188   0.188   0.188   0.190   0.197   0.195   0.188   0.189   0.197   0.193   0.193   0.206   0.202   0.207
    94.00    0.190   0.193   0.185   0.182   0.185   0.180   0.173   0.178   0.176   0.183   0.185   0.181   0.182   0.185   0.184   0.186   0.190   0.194   0.192   0.191   0.199   0.192   0.189   0.186   0.194   0.192   0.196   0.190   0.188   0.188   0.188   0.204   0.199   0.204   0.198
    89.35    0.195   0.194   0.189   0.185   0.177   0.174   0.176   0.175   0.183   0.180   0.187   0.188   0.182   0.183   0.184   0.183   0.190   0.189   0.196   0.201   0.191   0.179   0.184   0.193   0.197   0.191   0.187   0.188   0.188   0.192   0.196   0.205   0.205   0.207   0.196
    84.70    0.192   0.190   0.189   0.187   0.180   0.182   0.185   0.180   0.180   0.175   0.186   0.191   0.186   0.182   0.185   0.186   0.185   0.193   0.189   0.187   0.185   0.180   0.184   0.183   0.182   0.192   0.190   0.183   0.181   0.184   0.202   0.203   0.206   0.198   0.204
    80.05    0.194   0.192   0.183   0.182   0.180   0.179   0.184   0.180   0.177   0.180   0.184   0.186   0.185   0.180   0.182   0.192   0.188   0.190   0.195   0.194   0.189   0.179   0.184   0.182   0.186   0.185   0.185   0.187   0.183   0.188   0.195   0.198   0.197   0.200   0.203
    75.40    0.192   0.181   0.185   0.182   0.182   0.182   0.184   0.182   0.186   0.186   0.186   0.188   0.183   0.182   0.185   0.190   0.190   0.191   0.196   0.191   0.188   0.179   0.181   0.187   0.186   0.185   0.184   0.188   0.185   0.196   0.190   0.189   0.193   0.197   0.197
    70.75    0.192   0.191   0.193   0.185   0.175   0.174   0.183   0.192   0.191   0.187   0.189   0.185   0.180   0.180   0.192   0.187   0.198   0.196   0.195   0.191   0.189   0.185   0.183   0.183   0.182   0.183   0.192   0.183   0.177   0.186   0.190   0.189   0.186   0.187   0.192
    66.10    0.199   0.205   0.199   0.194   0.187   0.189   0.190   0.201   0.193   0.188   0.181   0.184   0.183   0.183   0.187   0.189   0.203   0.200   0.195   0.187   0.187   0.186   0.178   0.187   0.183   0.184   0.182   0.179   0.181   0.186   0.184   0.181   0.179   0.190   0.190
    61.45    0.196   0.204   0.194   0.194   0.187   0.187   0.191   0.198   0.196   0.196   0.183   0.186   0.186   0.185   0.185   0.186   0.193   0.194   0.189   0.196   0.180   0.176   0.185   0.191   0.189   0.185   0.178   0.182   0.184   0.188   0.187   0.178   0.180   0.185   0.188
    56.80    0.193   0.198   0.199   0.198   0.188   0.186   0.189   0.193   0.192   0.191   0.194   0.185   0.185   0.182   0.182   0.184   0.190   0.192   0.198   0.194   0.192   0.181   0.187   0.194   0.190   0.184   0.191   0.189   0.183   0.186   0.187   0.188   0.184   0.190   0.185
    52.15    0.191   0.191   0.192   0.203   0.196   0.187   0.193   0.193   0.195   0.196   0.191   0.184   0.183   0.185   0.187   0.190   0.192   0.192   0.191   0.194   0.192   0.190   0.190   0.197   0.196   0.188   0.195   0.192   0.189   0.189   0.185   0.186   0.181   0.186   0.183
    47.50    0.180   0.186   0.183   0.190   0.190   0.191   0.190   0.189   0.188   0.184   0.184   0.194   0.182   0.183   0.183   0.183   0.193   0.193   0.196   0.193   0.199   0.199   0.197   0.197   0.197   0.188   0.197   0.197   0.181   0.179   0.185   0.183   0.178   0.182   0.179
    42.85    0.184   0.182   0.181   0.185   0.187   0.189   0.193   0.185   0.188   0.191   0.192   0.202   0.200   0.190   0.185   0.183   0.184   0.194   0.198   0.197   0.193   0.198   0.203   0.197   0.195   0.193   0.189   0.191   0.176   0.183   0.179   0.184   0.181   0.187   0.184
    38.20    0.185   0.187   0.188   0.194   0.194   0.189   0.194   0.183   0.186   0.191   0.199   0.204   0.202   0.198   0.187   0.187   0.185   0.187   0.191   0.187   0.197   0.192   0.192   0.193   0.197   0.188   0.181   0.182   0.187   0.186   0.186   0.187   0.176   0.174   0.184
    33.55    0.185   0.187   0.193   0.195   0.196   0.184   0.187   0.178   0.186   0.201   0.195   0.194   0.199   0.190   0.188   0.196   0.185   0.190   0.179   0.183   0.193   0.191   0.188   0.190   0.192   0.189   0.182   0.187   0.185   0.192   0.196   0.185   0.181   0.179   0.187
    28.90    0.189   0.189   0.189   0.193   0.191   0.180   0.180   0.179   0.183   0.196   0.193   0.201   0.196   0.196   0.198   0.191   0.187   0.188   0.191   0.187   0.193   0.189   0.189   0.191   0.187   0.185   0.184   0.184   0.185   0.185   0.186   0.179   0.184   0.180   0.187
    24.25    0.190   0.192   0.188   0.186   0.190   0.186   0.186   0.184   0.189   0.193   0.190   0.193   0.195   0.200   0.199   0.195   0.191   0.185   0.194   0.192   0.188   0.186   0.182   0.181   0.184   0.180   0.177   0.183   0.182   0.182   0.183   0.185   0.184   0.183   0.187
    19.60    0.192   0.190   0.191   0.189   0.190   0.190   0.184   0.186   0.193   0.191   0.198   0.195   0.199   0.205   0.198   0.194   0.197   0.185   0.180   0.186   0.193   0.187   0.190   0.179   0.185   0.184   0.184   0.185   0.182   0.183   0.186   0.189   0.193   0.192   0.198
    14.95    0.192   0.197   0.197   0.197   0.190   0.186   0.186   0.181   0.189   0.190   0.196   0.196   0.190   0.190   0.189   0.188   0.185   0.186   0.183   0.188   0.191   0.185   0.178   0.189   0.185   0.186   0.184   0.182   0.183   0.183   0.192   0.190   0.185   0.191   0.197
    10.30    0.196   0.202   0.199   0.200   0.195   0.187   0.184   0.191   0.191   0.194   0.195   0.189   0.189   0.190   0.187   0.184   0.178   0.178   0.184   0.188   0.189   0.181   0.185   0.183   0.186   0.185   0.184   0.183   0.187   0.183   0.187   0.186   0.184   0.188   0.196
     5.65    0.191   0.196   0.200   0.197   0.203   0.186   0.188   0.189   0.188   0.189   0.199   0.193   0.193   0.193   0.186   0.187   0.189   0.184   0.184   0.190   0.191   0.188   0.186   0.181   0.181   0.184   0.190   0.188   0.194   0.183   0.183   0.180   0.180   0.185   0.189
     1.00    0.191   0.197   0.203   0.201   0.201   0.195   0.192   0.188   0.192   0.195   0.196   0.194   0.195   0.196   0.194   0.189   0.189   0.192   0.191   0.192   0.193   0.188   0.185   0.186   0.183   0.190   0.187   0.188   0.188   0.188   0.188   0.186   0.190   0.186   0.190

   Mean standard deviation across all grid points:
      u component:    0.370 m/s
      v component:    0.363 m/s
      w component:    0.191 m/s


U-component (X) statistics from the interpolated hub point:

   Mean =   9.9913 m/s
   TI   =   3.6734 %


Processing complete.  6150.6 CPU seconds used.
