
This summary file was generated by TurbSim (from OpenFAST-v3.5.3) on 19-Apr-2025 at 20:16:07.


Runtime Options:

-228636811  Random seed #1
    RANLUX  Type of random number generator
         F  Output binary HH turbulence parameters?
         F  Output formatted turbulence parameters?
         F  Output AeroDyn HH files?
         T  Output AeroDyn FF files?
         F  Output BLADED FF files?
         F  Output tower data?
         F  Output HAWC FF files?
         F  Output formatted FF files?
         T  Output coherent turbulence time step file?
 0 -  NONE  IEC turbulence models scaled to exact specified standard deviation


Turbine/Model Specifications:

        39  Vertical grid-point matrix dimension
       193  Horizontal grid-point matrix dimension
     0.250  Time step [seconds]
   900.000  Analysis time [seconds]
   900.000  Usable output time [seconds]
   177.700  Hub height [m]
   353.400  Grid height [m]
  1785.600  Grid width [m]
     0.000  Vertical flow angle [degrees]
     0.000  Horizontal flow angle [degrees]


Meteorological Boundary Conditions:

    IECKAI  IEC Kaimal spectral model
         1  IEC standard: IEC 61400-1 Ed. 3: 2005
     4.000  Percent turbulence intensity, IEC 61400-1 Ed. 3: 2005
       NTM  IEC Normal Turbulence Model
       N/A  IEC Extreme Turbulence Model (ETM) "c" parameter [m/s]
       USR  Wind profile type
    90.000  Reference height [m]
       N/A  Reference wind speed [m/s]
       N/A  Jet height [m]
       N/A  Power law exponent
     0.030  Surface roughness length [m]


Non-IEC Meteorological Boundary Conditions:

       N/A  Site latitude [degrees]
       N/A  Gradient Richardson number
       N/A  Friction or shear velocity [m/s]
       N/A  Mixing layer depth [m]
       N/A  Mean hub u'w' Reynolds stress
       N/A  Mean hub u'v' Reynolds stress
       N/A  Mean hub v'w' Reynolds stress


Spatial Coherence Models:

       IEC  u-component coherence model
       IEC  v-component coherence model
       IEC  w-component coherence model
(   12.000, 0.353E-03)  u-component coherence parameters
(   12.000, 0.353E-03)  v-component coherence parameters
(   12.000, 0.353E-03)  w-component coherence parameters
       N/A  Coherence exponent


User-Defined Profiles:

  Height   Wind Speed   Horizontal Angle
   (m)        (m/s)          (deg)      
  ------   ----------   ----------------
  353.40      10.00         318.19
  334.80      10.00         321.14
  316.20      10.00         324.10
  297.60      10.00         327.05
  279.00      10.00         330.00
  260.40      10.00         332.95
  241.80      10.00         335.90
  223.20      10.00         338.86
  204.60      10.00         341.81
  186.00      10.00         344.76
  167.40      10.00         347.71
  148.80      10.00         350.67
  130.20      10.00         353.62
  111.60      10.00         356.57
   93.00      10.00         359.52
   74.40      10.00           2.48
   55.80      10.00           5.43
   37.20      10.00           8.38
   18.60      10.00          11.33
    0.00      10.00          14.29


You have requested that the following file(s) be generated:

   /kfs3/scratch/agupta/Projects/RL_Incubator/FinalRuns_Veer/Seed4/./FFSim_Seed4/Cond00_v10.0_PL0.12_TI4.0/Seed_1/Low.bts (AeroDyn/TurbSim full-field wind file)


Turbulence Simulation Scaling Parameter Summary:

   Turbulence model used                            =  IEC Kaimal
   Turbulence characteristic                        =  User-specified
   IEC standard                                     =  IEC 61400-1 Ed. 3: 2005
   Mean wind speed at hub height                    =   10.000 m/s
   Characteristic value of standard deviation       =    0.400 m/s
   Turbulence scale                                 =   42.000 m
   u-component integral scale                       =  340.200 m
   Coherency scale                                  =  340.200 m
   Characteristic value of hub turbulence intensity =    4.000%
   Gradient Richardson number                       =    0.000

   Wind profile type                                =  Linear interpolation of user-defined profile
   Equivalent power law exponent (upper rotor disk) =    0.000
   Mean shear across rotor disk                     =    0.000 (m/s)/m
   Assumed rotor diameter                           =  353.400 m
   Surface roughness length                         =    0.030 m

   Nyquist frequency of turbulent wind field        =    2.000 Hz

   Number of time steps in the FFT                  =     3600
   Number of time steps output                      =     3600
   Number of points simulated                       =     7527


Mean Flow Angles:

   Vertical   =   0.0 degrees
   Horizontal =   0.0 degrees

Mean Wind Speed Profile:

   Height    Wind Speed   Horizontal Angle  Vertical Angle  U-comp (X)   V-comp (Y)   W-comp (Z)
     (m)        (m/s)         (degrees)       (degrees)       (m/s)        (m/s)        (m/s)   
   ------    ----------   ----------------  --------------  ----------   ----------   ----------
    354.4       10.00          318.19            0.00          7.45        -6.67         0.00
    345.1       10.00          319.51            0.00          7.60        -6.49         0.00
    335.8       10.00          320.98            0.00          7.77        -6.30         0.00
    326.5       10.00          322.46            0.00          7.93        -6.09         0.00
    317.2       10.00          323.94            0.00          8.08        -5.89         0.00
    307.9       10.00          325.41            0.00          8.23        -5.68         0.00
    298.6       10.00          326.89            0.00          8.38        -5.46         0.00
    289.3       10.00          328.37            0.00          8.51        -5.25         0.00
    280.0       10.00          329.84            0.00          8.65        -5.02         0.00
    270.7       10.00          331.32            0.00          8.77        -4.80         0.00
    261.4       10.00          332.79            0.00          8.89        -4.57         0.00
    252.1       10.00          334.27            0.00          9.01        -4.34         0.00
    242.8       10.00          335.75            0.00          9.12        -4.11         0.00
    233.5       10.00          337.22            0.00          9.22        -3.87         0.00
    224.2       10.00          338.70            0.00          9.32        -3.63         0.00
    214.9       10.00          340.17            0.00          9.41        -3.39         0.00
    205.6       10.00          341.65            0.00          9.49        -3.15         0.00
    196.3       10.00          343.13            0.00          9.57        -2.90         0.00
    187.0       10.00          344.60            0.00          9.64        -2.66         0.00
    177.7       10.00          346.08            0.00          9.71        -2.41         0.00
    168.4       10.00          347.56            0.00          9.77        -2.15         0.00
    159.1       10.00          349.03            0.00          9.82        -1.90         0.00
    149.8       10.00          350.51            0.00          9.86        -1.65         0.00
    140.5       10.00          351.98            0.00          9.90        -1.39         0.00
    131.2       10.00          353.46            0.00          9.93        -1.14         0.00
    121.9       10.00          354.94            0.00          9.96        -0.88         0.00
    112.6       10.00          356.41            0.00          9.98        -0.63         0.00
    103.3       10.00          357.89            0.00          9.99        -0.37         0.00
     94.0       10.00          359.37            0.00         10.00        -0.11         0.00
     84.7       10.00          360.84            0.00         10.00         0.15         0.00
     75.4       10.00          362.32            0.00          9.99         0.40         0.00
     66.1       10.00            3.79            0.00          9.98         0.66         0.00
     56.8       10.00            5.27            0.00          9.96         0.92         0.00
     47.5       10.00            6.75            0.00          9.93         1.17         0.00
     38.2       10.00            8.22            0.00          9.90         1.43         0.00
     28.9       10.00            9.70            0.00          9.86         1.68         0.00
     19.6       10.00           11.17            0.00          9.81         1.94         0.00
     10.3       10.00           12.65            0.00          9.76         2.19         0.00
      1.0       10.00           14.13            0.00          9.70         2.44         0.00


Harvested Random Seeds after Generation of the Random Numbers:

    377667225 K 1
            0 K 2


Hub-Height Simulated Turbulence Statistical Summary:

   Type of Wind        Min (m/s)   Mean (m/s)    Max (m/s)  Sigma (m/s)       TI (%)
   ----------------    ---------   ----------    ---------  -----------       ------
   Longitudinal (u)         8.60        10.00        11.25        0.405        4.048
   Lateral (v)             -0.96        -0.00         1.18        0.310        3.096
   Vertical (w)            -0.64         0.00         0.56        0.181        1.814
   U component              8.21         9.71        10.91        0.411        4.231
   V component             -3.27        -2.41        -1.29        0.302        3.109
   W component             -0.64         0.00         0.56        0.181        1.869
   Horizontal (U&V)         8.62        10.00        11.25        0.404        4.041
   Total                    8.63        10.01        11.25        0.404        4.039

                       Min Reynolds     Mean Reynolds    Max Reynolds    Correlation
   Product             Stress (m/s)^2   Stress (m/s)^2   Stress (m/s)^2  Coefficient
   ----------------    --------------   --------------   --------------  -----------
   u'w'                     -0.532             0.003             0.540         0.038
   u'v'                     -0.660             0.019             0.948         0.149
   v'w'                     -0.401            -0.002             0.318        -0.031


   Friction Velocity (Ustar)  =      0.053 m/s
   Maximum Instantaneous TKE  =      1.153 (m/s)^2
   Maximum Instantaneous CTKE =      0.552 (m/s)^2


Grid Point Variance Summary:

   Y-coord -892.80 -883.50 -874.20 -864.90 -855.60 -846.30 -837.00 -827.70 -818.40 -809.10 -799.80 -790.50 -781.20 -771.90 -762.60 -753.30 -744.00 -734.70 -725.40 -716.10 -706.80 -697.50 -688.20 -678.90 -669.60 -660.30 -651.00 -641.70 -632.40 -623.10 -613.80 -604.50 -595.20 -585.90 -576.60 -567.30 -558.00 -548.70 -539.40 -530.10 -520.80 -511.50 -502.20 -492.90 -483.60 -474.30 -465.00 -455.70 -446.40 -437.10 -427.80 -418.50 -409.20 -399.90 -390.60 -381.30 -372.00 -362.70 -353.40 -344.10 -334.80 -325.50 -316.20 -306.90 -297.60 -288.30 -279.00 -269.70 -260.40 -251.10 -241.80 -232.50 -223.20 -213.90 -204.60 -195.30 -186.00 -176.70 -167.40 -158.10 -148.80 -139.50 -130.20 -120.90 -111.60 -102.30  -93.00  -83.70  -74.40  -65.10  -55.80  -46.50  -37.20  -27.90  -18.60   -9.30    0.00    9.30   18.60   27.90   37.20   46.50   55.80   65.10   74.40   83.70   93.00  102.30  111.60  120.90  130.20  139.50  148.80  158.10  167.40  176.70  186.00  195.30  204.60  213.90  223.20  232.50  241.80  251.10  260.40  269.70  279.00  288.30  297.60  306.90  316.20  325.50  334.80  344.10  353.40  362.70  372.00  381.30  390.60  399.90  409.20  418.50  427.80  437.10  446.40  455.70  465.00  474.30  483.60  492.90  502.20  511.50  520.80  530.10  539.40  548.70  558.00  567.30  576.60  585.90  595.20  604.50  613.80  623.10  632.40  641.70  651.00  660.30  669.60  678.90  688.20  697.50  706.80  716.10  725.40  734.70  744.00  753.30  762.60  771.90  781.20  790.50  799.80  809.10  818.40  827.70  837.00  846.30  855.60  864.90  874.20  883.50  892.80

   Height   Standard deviation at grid points for the u component:
   354.40    0.351   0.348   0.381   0.378   0.392   0.395   0.376   0.347   0.350   0.344   0.347   0.357   0.369   0.370   0.396   0.385   0.378   0.402   0.398   0.382   0.398   0.415   0.407   0.392   0.369   0.351   0.361   0.406   0.421   0.418   0.392   0.388   0.392   0.390   0.361   0.365   0.388   0.376   0.386   0.357   0.363   0.395   0.346   0.383   0.392   0.393   0.407   0.378   0.389   0.391   0.399   0.387   0.381   0.370   0.369   0.356   0.355   0.381   0.364   0.351   0.333   0.328   0.361   0.337   0.338   0.368   0.344   0.358   0.346   0.330   0.360   0.381   0.356   0.349   0.372   0.364   0.350   0.346   0.366   0.385   0.388   0.433   0.412   0.371   0.385   0.362   0.361   0.406   0.377   0.374   0.367   0.373   0.398   0.403   0.414   0.405   0.406   0.392   0.386   0.375   0.360   0.359   0.340   0.358   0.336   0.337   0.331   0.343   0.313   0.329   0.306   0.326   0.320   0.345   0.346   0.358   0.349   0.343   0.355   0.386   0.394   0.383   0.375   0.392   0.354   0.323   0.322   0.298   0.337   0.330   0.333   0.328   0.303   0.319   0.324   0.308   0.311   0.321   0.350   0.385   0.393   0.397   0.375   0.388   0.398   0.372   0.367   0.408   0.401   0.385   0.403   0.360   0.364   0.343   0.364   0.351   0.387   0.412   0.418   0.419   0.437   0.439   0.455   0.467   0.478   0.485   0.527   0.483   0.530   0.555   0.546   0.523   0.477   0.501   0.508   0.490   0.497   0.468   0.458   0.453   0.463   0.453   0.460   0.473   0.453   0.453   0.476   0.474   0.465   0.432   0.439   0.412   0.433
   345.10    0.363   0.368   0.381   0.372   0.373   0.385   0.373   0.353   0.338   0.365   0.386   0.353   0.368   0.392   0.388   0.407   0.386   0.418   0.419   0.396   0.393   0.367   0.385   0.403   0.388   0.377   0.400   0.407   0.425   0.421   0.402   0.403   0.391   0.390   0.401   0.367   0.357   0.368   0.363   0.357   0.348   0.356   0.358   0.374   0.383   0.394   0.428   0.404   0.387   0.374   0.364   0.406   0.371   0.364   0.386   0.370   0.378   0.405   0.372   0.348   0.314   0.327   0.340   0.340   0.356   0.355   0.360   0.356   0.346   0.330   0.363   0.361   0.350   0.357   0.371   0.371   0.362   0.380   0.382   0.352   0.395   0.408   0.394   0.385   0.382   0.353   0.368   0.379   0.381   0.379   0.385   0.354   0.382   0.379   0.393   0.407   0.419   0.406   0.376   0.366   0.349   0.335   0.322   0.331   0.332   0.308   0.310   0.306   0.303   0.312   0.311   0.335   0.336   0.349   0.355   0.366   0.367   0.367   0.376   0.394   0.404   0.392   0.375   0.375   0.355   0.331   0.320   0.298   0.313   0.334   0.331   0.333   0.331   0.328   0.344   0.307   0.307   0.345   0.337   0.369   0.387   0.370   0.378   0.393   0.387   0.346   0.362   0.376   0.358   0.380   0.386   0.374   0.357   0.381   0.386   0.409   0.403   0.431   0.435   0.455   0.452   0.438   0.435   0.447   0.475   0.468   0.489   0.484   0.520   0.556   0.553   0.526   0.488   0.488   0.539   0.517   0.489   0.492   0.502   0.461   0.464   0.472   0.492   0.483   0.469   0.454   0.462   0.443   0.433   0.420   0.433   0.429   0.442
   335.80    0.371   0.352   0.347   0.348   0.351   0.365   0.373   0.342   0.334   0.371   0.377   0.395   0.389   0.385   0.392   0.403   0.405   0.418   0.429   0.406   0.373   0.404   0.411   0.405   0.407   0.402   0.409   0.404   0.397   0.414   0.407   0.403   0.388   0.421   0.392   0.371   0.352   0.325   0.311   0.331   0.365   0.359   0.356   0.333   0.370   0.386   0.395   0.395   0.376   0.376   0.351   0.369   0.371   0.378   0.391   0.393   0.398   0.385   0.348   0.336   0.337   0.329   0.341   0.334   0.345   0.338   0.350   0.374   0.357   0.380   0.362   0.322   0.351   0.369   0.371   0.359   0.361   0.370   0.366   0.362   0.362   0.397   0.392   0.371   0.350   0.355   0.358   0.349   0.353   0.383   0.369   0.364   0.366   0.368   0.397   0.398   0.392   0.394   0.372   0.346   0.346   0.335   0.318   0.294   0.333   0.314   0.308   0.319   0.326   0.304   0.308   0.329   0.339   0.340   0.334   0.353   0.394   0.408   0.408   0.398   0.393   0.376   0.378   0.392   0.358   0.335   0.347   0.326   0.318   0.314   0.317   0.331   0.339   0.356   0.344   0.340   0.321   0.355   0.341   0.355   0.365   0.370   0.394   0.371   0.380   0.360   0.362   0.378   0.390   0.378   0.392   0.368   0.399   0.387   0.402   0.402   0.424   0.425   0.423   0.465   0.467   0.438   0.424   0.453   0.502   0.486   0.479   0.499   0.499   0.524   0.510   0.516   0.534   0.542   0.562   0.565   0.515   0.509   0.480   0.490   0.480   0.485   0.488   0.457   0.470   0.495   0.472   0.458   0.427   0.449   0.437   0.434   0.435
   326.50    0.348   0.356   0.338   0.353   0.347   0.342   0.323   0.338   0.326   0.337   0.373   0.397   0.408   0.383   0.377   0.366   0.395   0.432   0.422   0.415   0.404   0.395   0.431   0.428   0.436   0.406   0.400   0.407   0.411   0.439   0.438   0.410   0.388   0.411   0.422   0.362   0.322   0.303   0.307   0.314   0.339   0.354   0.382   0.345   0.355   0.371   0.375   0.363   0.362   0.370   0.339   0.366   0.364   0.366   0.393   0.433   0.401   0.379   0.351   0.345   0.336   0.348   0.337   0.322   0.322   0.327   0.363   0.371   0.367   0.380   0.361   0.346   0.360   0.368   0.366   0.366   0.360   0.353   0.347   0.365   0.354   0.364   0.366   0.363   0.367   0.345   0.361   0.366   0.371   0.364   0.372   0.357   0.370   0.381   0.378   0.395   0.381   0.396   0.364   0.352   0.348   0.361   0.332   0.302   0.315   0.318   0.310   0.321   0.328   0.328   0.313   0.315   0.319   0.325   0.350   0.354   0.366   0.381   0.379   0.386   0.381   0.379   0.390   0.391   0.360   0.391   0.378   0.350   0.321   0.307   0.315   0.339   0.346   0.349   0.362   0.352   0.342   0.351   0.314   0.319   0.345   0.364   0.356   0.356   0.325   0.340   0.369   0.371   0.379   0.371   0.370   0.368   0.370   0.400   0.403   0.414   0.431   0.434   0.430   0.439   0.460   0.440   0.430   0.459   0.475   0.482   0.477   0.529   0.525   0.478   0.478   0.501   0.530   0.538   0.521   0.520   0.511   0.493   0.496   0.518   0.520   0.527   0.505   0.477   0.485   0.502   0.480   0.471   0.452   0.444   0.471   0.468   0.435
   317.20    0.343   0.347   0.331   0.347   0.358   0.366   0.349   0.323   0.351   0.352   0.350   0.378   0.410   0.428   0.382   0.386   0.395   0.410   0.414   0.412   0.419   0.412   0.422   0.430   0.411   0.404   0.397   0.385   0.423   0.444   0.417   0.384   0.382   0.409   0.412   0.350   0.316   0.311   0.290   0.288   0.296   0.328   0.346   0.344   0.334   0.350   0.367   0.368   0.354   0.372   0.358   0.363   0.355   0.356   0.373   0.415   0.407   0.362   0.358   0.340   0.332   0.348   0.333   0.339   0.335   0.328   0.345   0.357   0.344   0.340   0.349   0.347   0.363   0.355   0.372   0.359   0.364   0.380   0.348   0.343   0.349   0.373   0.373   0.346   0.345   0.348   0.366   0.368   0.356   0.373   0.372   0.399   0.361   0.362   0.388   0.376   0.381   0.388   0.356   0.394   0.353   0.358   0.343   0.345   0.358   0.350   0.335   0.322   0.323   0.334   0.334   0.343   0.326   0.342   0.372   0.375   0.364   0.382   0.396   0.397   0.404   0.401   0.392   0.396   0.390   0.392   0.382   0.358   0.315   0.300   0.308   0.320   0.327   0.361   0.366   0.360   0.352   0.328   0.339   0.342   0.346   0.371   0.360   0.355   0.338   0.360   0.384   0.372   0.349   0.372   0.377   0.365   0.382   0.401   0.371   0.362   0.397   0.414   0.439   0.441   0.445   0.415   0.454   0.462   0.453   0.456   0.461   0.493   0.503   0.488   0.458   0.492   0.503   0.515   0.495   0.500   0.500   0.483   0.477   0.501   0.495   0.514   0.510   0.506   0.479   0.481   0.509   0.514   0.468   0.487   0.479   0.494   0.442
   307.90    0.375   0.361   0.340   0.338   0.342   0.339   0.339   0.348   0.343   0.345   0.366   0.375   0.387   0.443   0.410   0.405   0.440   0.399   0.412   0.415   0.426   0.433   0.435   0.449   0.433   0.390   0.412   0.402   0.424   0.393   0.405   0.395   0.356   0.379   0.365   0.341   0.313   0.301   0.301   0.293   0.303   0.319   0.308   0.321   0.335   0.373   0.376   0.377   0.375   0.379   0.384   0.393   0.371   0.370   0.359   0.382   0.363   0.331   0.361   0.370   0.373   0.341   0.344   0.330   0.332   0.314   0.324   0.338   0.354   0.346   0.355   0.338   0.352   0.352   0.366   0.358   0.355   0.377   0.374   0.369   0.351   0.381   0.368   0.362   0.344   0.341   0.381   0.374   0.402   0.414   0.403   0.406   0.393   0.383   0.368   0.378   0.377   0.369   0.377   0.343   0.342   0.351   0.349   0.351   0.340   0.329   0.314   0.310   0.313   0.341   0.309   0.334   0.337   0.322   0.360   0.358   0.369   0.401   0.391   0.396   0.395   0.382   0.372   0.382   0.396   0.407   0.404   0.383   0.366   0.337   0.332   0.352   0.350   0.355   0.360   0.355   0.345   0.324   0.324   0.323   0.357   0.359   0.362   0.353   0.379   0.362   0.358   0.370   0.379   0.366   0.375   0.354   0.390   0.398   0.391   0.369   0.371   0.389   0.408   0.421   0.417   0.439   0.450   0.472   0.474   0.464   0.454   0.463   0.495   0.473   0.443   0.477   0.496   0.481   0.474   0.468   0.477   0.490   0.478   0.486   0.469   0.494   0.511   0.490   0.476   0.493   0.487   0.504   0.483   0.469   0.458   0.451   0.444
   298.60    0.366   0.358   0.359   0.336   0.322   0.354   0.355   0.390   0.361   0.368   0.351   0.382   0.398   0.405   0.413   0.446   0.449   0.395   0.407   0.428   0.453   0.431   0.421   0.404   0.409   0.387   0.368   0.380   0.395   0.384   0.375   0.366   0.338   0.344   0.359   0.314   0.324   0.299   0.284   0.301   0.334   0.347   0.315   0.335   0.341   0.346   0.360   0.338   0.353   0.377   0.390   0.381   0.348   0.351   0.346   0.346   0.344   0.336   0.371   0.369   0.351   0.336   0.359   0.339   0.341   0.336   0.335   0.340   0.330   0.328   0.332   0.319   0.326   0.354   0.362   0.359   0.353   0.353   0.372   0.384   0.363   0.368   0.369   0.359   0.338   0.341   0.382   0.403   0.400   0.409   0.380   0.375   0.393   0.373   0.378   0.375   0.374   0.367   0.335   0.336   0.350   0.353   0.346   0.346   0.328   0.321   0.297   0.315   0.318   0.327   0.332   0.311   0.344   0.338   0.330   0.349   0.365   0.370   0.371   0.347   0.385   0.370   0.381   0.382   0.373   0.400   0.401   0.355   0.380   0.377   0.367   0.373   0.369   0.336   0.334   0.339   0.349   0.321   0.329   0.341   0.366   0.371   0.343   0.357   0.335   0.343   0.349   0.350   0.377   0.370   0.362   0.384   0.395   0.384   0.394   0.390   0.394   0.390   0.381   0.413   0.418   0.431   0.446   0.465   0.468   0.455   0.447   0.428   0.430   0.446   0.448   0.451   0.470   0.443   0.456   0.467   0.474   0.483   0.462   0.479   0.483   0.498   0.482   0.504   0.506   0.489   0.467   0.467   0.458   0.455   0.452   0.439   0.435
   289.30    0.357   0.347   0.332   0.366   0.362   0.370   0.353   0.361   0.349   0.365   0.368   0.377   0.378   0.380   0.420   0.431   0.429   0.426   0.404   0.427   0.428   0.428   0.425   0.397   0.414   0.402   0.373   0.365   0.373   0.363   0.347   0.349   0.319   0.334   0.325   0.306   0.313   0.298   0.299   0.313   0.311   0.318   0.319   0.324   0.340   0.334   0.330   0.340   0.354   0.358   0.363   0.358   0.331   0.321   0.335   0.334   0.363   0.367   0.379   0.363   0.337   0.367   0.365   0.347   0.353   0.340   0.341   0.350   0.346   0.334   0.312   0.315   0.321   0.354   0.354   0.345   0.345   0.366   0.377   0.357   0.371   0.363   0.329   0.334   0.336   0.336   0.374   0.386   0.395   0.387   0.355   0.364   0.349   0.370   0.377   0.368   0.386   0.359   0.373   0.382   0.368   0.356   0.360   0.364   0.358   0.312   0.322   0.330   0.308   0.333   0.350   0.339   0.345   0.355   0.344   0.339   0.355   0.359   0.361   0.368   0.373   0.370   0.368   0.377   0.356   0.377   0.394   0.373   0.380   0.371   0.369   0.380   0.390   0.374   0.327   0.328   0.336   0.322   0.330   0.363   0.362   0.363   0.338   0.335   0.354   0.344   0.335   0.358   0.362   0.374   0.360   0.374   0.384   0.368   0.367   0.381   0.379   0.400   0.417   0.406   0.401   0.429   0.443   0.437   0.436   0.428   0.406   0.412   0.401   0.402   0.417   0.414   0.432   0.432   0.448   0.472   0.477   0.478   0.466   0.478   0.483   0.510   0.511   0.520   0.499   0.463   0.436   0.452   0.420   0.442   0.445   0.421   0.406
   280.00    0.349   0.376   0.365   0.389   0.365   0.357   0.325   0.343   0.346   0.346   0.346   0.385   0.397   0.385   0.421   0.420   0.413   0.388   0.413   0.407   0.413   0.410   0.415   0.396   0.393   0.388   0.357   0.369   0.375   0.375   0.363   0.351   0.326   0.326   0.330   0.328   0.331   0.333   0.318   0.292   0.296   0.317   0.322   0.347   0.345   0.334   0.337   0.350   0.342   0.331   0.336   0.315   0.321   0.325   0.317   0.339   0.356   0.368   0.376   0.373   0.337   0.343   0.349   0.352   0.350   0.338   0.340   0.357   0.351   0.351   0.323   0.326   0.330   0.343   0.340   0.361   0.348   0.368   0.354   0.371   0.381   0.367   0.332   0.340   0.341   0.339   0.370   0.384   0.383   0.397   0.374   0.360   0.357   0.362   0.384   0.382   0.378   0.374   0.383   0.379   0.386   0.383   0.362   0.365   0.341   0.339   0.328   0.321   0.323   0.353   0.344   0.347   0.358   0.358   0.352   0.354   0.358   0.346   0.360   0.372   0.370   0.377   0.375   0.377   0.382   0.390   0.402   0.381   0.370   0.360   0.385   0.383   0.376   0.346   0.328   0.320   0.329   0.331   0.365   0.320   0.337   0.352   0.326   0.333   0.348   0.357   0.342   0.361   0.366   0.376   0.363   0.354   0.354   0.385   0.420   0.406   0.408   0.409   0.430   0.409   0.402   0.408   0.423   0.410   0.408   0.420   0.416   0.405   0.396   0.399   0.397   0.415   0.408   0.444   0.465   0.477   0.461   0.464   0.479   0.470   0.495   0.512   0.515   0.515   0.500   0.461   0.443   0.397   0.412   0.418   0.444   0.417   0.400
   270.70    0.353   0.376   0.389   0.380   0.379   0.377   0.321   0.342   0.358   0.351   0.355   0.383   0.391   0.410   0.400   0.401   0.408   0.406   0.401   0.408   0.420   0.418   0.387   0.385   0.378   0.381   0.369   0.357   0.368   0.354   0.337   0.336   0.328   0.316   0.323   0.329   0.309   0.316   0.327   0.316   0.299   0.311   0.318   0.332   0.347   0.360   0.358   0.356   0.351   0.313   0.312   0.299   0.320   0.322   0.332   0.360   0.355   0.381   0.382   0.357   0.346   0.334   0.329   0.345   0.356   0.347   0.343   0.347   0.348   0.352   0.329   0.314   0.326   0.344   0.354   0.358   0.353   0.361   0.350   0.358   0.369   0.353   0.342   0.341   0.342   0.342   0.379   0.393   0.401   0.390   0.379   0.356   0.355   0.346   0.363   0.389   0.386   0.356   0.349   0.376   0.398   0.373   0.359   0.375   0.361   0.338   0.345   0.321   0.332   0.343   0.367   0.367   0.395   0.358   0.342   0.338   0.346   0.358   0.371   0.377   0.386   0.369   0.393   0.379   0.365   0.399   0.413   0.381   0.371   0.375   0.399   0.368   0.375   0.352   0.318   0.310   0.327   0.340   0.362   0.331   0.342   0.336   0.337   0.336   0.364   0.375   0.341   0.382   0.402   0.412   0.400   0.381   0.382   0.403   0.422   0.437   0.440   0.418   0.414   0.416   0.402   0.406   0.391   0.412   0.409   0.396   0.393   0.381   0.371   0.391   0.387   0.387   0.406   0.414   0.431   0.435   0.451   0.466   0.455   0.471   0.456   0.476   0.483   0.492   0.505   0.487   0.451   0.443   0.448   0.450   0.418   0.408   0.402
   261.40    0.394   0.374   0.384   0.396   0.396   0.366   0.353   0.380   0.357   0.339   0.357   0.354   0.351   0.381   0.397   0.407   0.408   0.435   0.412   0.405   0.388   0.376   0.379   0.377   0.384   0.379   0.342   0.335   0.330   0.344   0.354   0.333   0.341   0.333   0.303   0.298   0.316   0.322   0.309   0.311   0.303   0.298   0.319   0.356   0.351   0.329   0.333   0.338   0.345   0.336   0.316   0.341   0.352   0.318   0.317   0.395   0.378   0.388   0.379   0.369   0.355   0.344   0.332   0.341   0.372   0.369   0.361   0.340   0.314   0.325   0.349   0.312   0.343   0.351   0.332   0.349   0.368   0.341   0.357   0.361   0.380   0.385   0.369   0.372   0.356   0.388   0.392   0.401   0.378   0.379   0.401   0.371   0.368   0.368   0.353   0.371   0.367   0.361   0.362   0.386   0.386   0.375   0.363   0.346   0.350   0.364   0.367   0.344   0.353   0.341   0.361   0.346   0.366   0.380   0.352   0.315   0.353   0.345   0.395   0.395   0.380   0.378   0.376   0.369   0.371   0.377   0.371   0.373   0.385   0.371   0.392   0.377   0.355   0.355   0.329   0.301   0.338   0.328   0.341   0.365   0.349   0.347   0.341   0.341   0.362   0.351   0.348   0.396   0.433   0.406   0.437   0.423   0.405   0.421   0.468   0.470   0.445   0.421   0.420   0.411   0.388   0.409   0.411   0.417   0.393   0.385   0.378   0.368   0.400   0.399   0.388   0.385   0.412   0.398   0.412   0.436   0.453   0.463   0.443   0.455   0.460   0.465   0.468   0.468   0.478   0.451   0.452   0.435   0.440   0.443   0.386   0.385   0.395
   252.10    0.402   0.385   0.376   0.372   0.380   0.383   0.376   0.369   0.377   0.350   0.366   0.368   0.344   0.362   0.383   0.414   0.395   0.401   0.436   0.409   0.390   0.391   0.377   0.376   0.370   0.358   0.333   0.329   0.317   0.328   0.339   0.342   0.328   0.319   0.316   0.315   0.318   0.339   0.346   0.338   0.326   0.318   0.330   0.330   0.345   0.348   0.351   0.349   0.342   0.351   0.336   0.349   0.340   0.328   0.349   0.380   0.409   0.434   0.392   0.363   0.353   0.355   0.326   0.333   0.333   0.358   0.348   0.334   0.316   0.320   0.329   0.319   0.326   0.318   0.346   0.355   0.348   0.340   0.336   0.364   0.381   0.376   0.370   0.401   0.389   0.392   0.402   0.400   0.392   0.397   0.386   0.388   0.378   0.368   0.354   0.373   0.362   0.353   0.348   0.358   0.383   0.368   0.351   0.354   0.371   0.385   0.376   0.375   0.379   0.356   0.353   0.358   0.344   0.360   0.334   0.347   0.364   0.362   0.371   0.390   0.386   0.392   0.390   0.346   0.352   0.358   0.377   0.360   0.372   0.381   0.369   0.356   0.346   0.360   0.363   0.323   0.339   0.335   0.344   0.332   0.346   0.355   0.349   0.347   0.385   0.381   0.353   0.376   0.412   0.395   0.408   0.420   0.407   0.444   0.461   0.465   0.474   0.426   0.407   0.389   0.396   0.397   0.388   0.384   0.402   0.403   0.417   0.392   0.413   0.417   0.395   0.401   0.403   0.395   0.392   0.397   0.437   0.458   0.435   0.439   0.443   0.469   0.481   0.430   0.457   0.441   0.427   0.445   0.453   0.404   0.407   0.387   0.379
   242.80    0.377   0.379   0.378   0.381   0.359   0.374   0.381   0.379   0.379   0.386   0.385   0.389   0.375   0.370   0.387   0.390   0.401   0.386   0.415   0.405   0.373   0.388   0.407   0.409   0.363   0.357   0.357   0.367   0.322   0.339   0.331   0.341   0.314   0.316   0.326   0.343   0.357   0.350   0.350   0.364   0.336   0.356   0.346   0.361   0.348   0.351   0.370   0.361   0.358   0.366   0.338   0.348   0.359   0.361   0.342   0.361   0.406   0.423   0.421   0.356   0.378   0.343   0.340   0.338   0.332   0.327   0.324   0.346   0.317   0.315   0.311   0.314   0.349   0.335   0.341   0.349   0.356   0.365   0.346   0.364   0.395   0.392   0.402   0.410   0.374   0.383   0.379   0.389   0.409   0.385   0.357   0.363   0.379   0.386   0.392   0.408   0.380   0.366   0.374   0.366   0.383   0.388   0.384   0.365   0.369   0.378   0.396   0.384   0.387   0.377   0.358   0.390   0.375   0.374   0.371   0.355   0.366   0.357   0.351   0.379   0.382   0.382   0.396   0.373   0.364   0.372   0.370   0.370   0.364   0.383   0.363   0.340   0.349   0.339   0.344   0.353   0.343   0.363   0.346   0.355   0.342   0.362   0.367   0.372   0.381   0.342   0.363   0.364   0.388   0.396   0.390   0.388   0.418   0.436   0.436   0.458   0.473   0.444   0.396   0.377   0.400   0.386   0.394   0.389   0.400   0.422   0.386   0.419   0.409   0.409   0.397   0.396   0.398   0.388   0.399   0.403   0.435   0.439   0.428   0.468   0.499   0.494   0.501   0.462   0.471   0.451   0.440   0.437   0.434   0.423   0.366   0.397   0.396
   233.50    0.409   0.401   0.405   0.362   0.351   0.357   0.375   0.377   0.397   0.371   0.390   0.413   0.416   0.375   0.381   0.368   0.400   0.401   0.413   0.386   0.391   0.364   0.403   0.388   0.366   0.343   0.358   0.367   0.346   0.345   0.347   0.350   0.325   0.319   0.352   0.355   0.374   0.356   0.380   0.393   0.366   0.373   0.344   0.357   0.344   0.358   0.344   0.357   0.353   0.353   0.340   0.324   0.345   0.352   0.366   0.379   0.395   0.410   0.393   0.350   0.355   0.341   0.315   0.316   0.315   0.325   0.310   0.328   0.316   0.324   0.325   0.314   0.327   0.328   0.329   0.347   0.376   0.365   0.359   0.380   0.382   0.381   0.388   0.381   0.371   0.357   0.381   0.400   0.403   0.363   0.342   0.372   0.386   0.410   0.406   0.417   0.375   0.356   0.370   0.361   0.396   0.391   0.385   0.358   0.365   0.370   0.377   0.370   0.384   0.392   0.400   0.415   0.406   0.419   0.381   0.368   0.342   0.338   0.356   0.352   0.368   0.358   0.347   0.351   0.325   0.331   0.374   0.393   0.393   0.402   0.368   0.368   0.352   0.354   0.362   0.346   0.360   0.317   0.330   0.341   0.344   0.333   0.344   0.366   0.368   0.334   0.362   0.349   0.367   0.364   0.346   0.399   0.425   0.441   0.440   0.469   0.444   0.476   0.429   0.404   0.385   0.387   0.404   0.422   0.434   0.420   0.407   0.426   0.400   0.371   0.410   0.394   0.402   0.394   0.401   0.433   0.442   0.456   0.465   0.466   0.492   0.473   0.480   0.462   0.462   0.446   0.430   0.439   0.450   0.405   0.396   0.402   0.401
   224.20    0.391   0.426   0.388   0.377   0.351   0.360   0.375   0.373   0.415   0.395   0.388   0.393   0.418   0.402   0.375   0.383   0.361   0.379   0.394   0.381   0.387   0.423   0.406   0.376   0.379   0.379   0.350   0.369   0.353   0.336   0.342   0.325   0.314   0.299   0.310   0.337   0.356   0.361   0.377   0.390   0.379   0.388   0.384   0.371   0.374   0.396   0.368   0.364   0.373   0.350   0.332   0.366   0.358   0.370   0.369   0.368   0.378   0.379   0.368   0.346   0.346   0.342   0.327   0.323   0.326   0.349   0.318   0.305   0.330   0.335   0.331   0.334   0.322   0.338   0.347   0.353   0.379   0.377   0.348   0.367   0.394   0.382   0.391   0.353   0.331   0.345   0.357   0.410   0.386   0.354   0.383   0.384   0.381   0.390   0.380   0.383   0.385   0.380   0.354   0.369   0.397   0.388   0.393   0.366   0.346   0.362   0.368   0.361   0.369   0.379   0.365   0.370   0.395   0.409   0.401   0.373   0.349   0.357   0.354   0.339   0.366   0.336   0.335   0.347   0.363   0.354   0.371   0.374   0.388   0.396   0.401   0.391   0.369   0.374   0.346   0.331   0.338   0.312   0.318   0.328   0.338   0.350   0.344   0.350   0.365   0.352   0.373   0.366   0.367   0.368   0.372   0.400   0.436   0.441   0.440   0.462   0.452   0.445   0.412   0.424   0.399   0.392   0.396   0.403   0.400   0.412   0.428   0.442   0.423   0.402   0.411   0.406   0.407   0.401   0.416   0.430   0.422   0.433   0.454   0.458   0.489   0.443   0.470   0.457   0.456   0.438   0.411   0.420   0.436   0.416   0.413   0.393   0.404
   214.90    0.421   0.424   0.379   0.340   0.347   0.333   0.367   0.377   0.382   0.378   0.379   0.386   0.384   0.348   0.345   0.335   0.335   0.342   0.347   0.331   0.363   0.382   0.403   0.387   0.387   0.366   0.368   0.365   0.345   0.308   0.308   0.307   0.313   0.316   0.326   0.324   0.324   0.364   0.363   0.399   0.390   0.406   0.403   0.408   0.384   0.385   0.365   0.363   0.351   0.350   0.368   0.365   0.367   0.355   0.344   0.364   0.372   0.377   0.367   0.339   0.352   0.339   0.344   0.341   0.333   0.340   0.340   0.316   0.302   0.325   0.328   0.348   0.329   0.314   0.307   0.347   0.372   0.390   0.359   0.362   0.378   0.381   0.379   0.358   0.322   0.355   0.366   0.388   0.378   0.392   0.360   0.395   0.368   0.382   0.365   0.383   0.369   0.365   0.358   0.365   0.387   0.382   0.383   0.382   0.347   0.384   0.396   0.369   0.357   0.368   0.357   0.380   0.403   0.403   0.408   0.392   0.381   0.347   0.352   0.357   0.338   0.329   0.318   0.348   0.369   0.376   0.371   0.371   0.366   0.390   0.385   0.411   0.382   0.361   0.349   0.339   0.348   0.330   0.323   0.335   0.356   0.351   0.363   0.371   0.354   0.353   0.363   0.378   0.402   0.397   0.391   0.398   0.431   0.433   0.432   0.432   0.446   0.441   0.412   0.406   0.413   0.388   0.392   0.399   0.412   0.425   0.431   0.431   0.460   0.416   0.398   0.392   0.416   0.425   0.407   0.419   0.400   0.425   0.442   0.459   0.444   0.450   0.457   0.463   0.447   0.443   0.426   0.429   0.434   0.400   0.381   0.387   0.400
   205.60    0.440   0.403   0.365   0.336   0.350   0.360   0.377   0.356   0.364   0.382   0.362   0.387   0.361   0.346   0.325   0.333   0.334   0.332   0.315   0.328   0.340   0.373   0.414   0.417   0.379   0.363   0.371   0.370   0.350   0.315   0.320   0.312   0.310   0.319   0.314   0.328   0.340   0.344   0.346   0.382   0.377   0.400   0.397   0.379   0.357   0.367   0.340   0.373   0.351   0.357   0.345   0.351   0.369   0.349   0.344   0.358   0.363   0.378   0.357   0.353   0.365   0.355   0.342   0.339   0.328   0.306   0.306   0.315   0.302   0.313   0.314   0.308   0.320   0.310   0.297   0.311   0.339   0.361   0.371   0.370   0.367   0.387   0.355   0.351   0.346   0.349   0.358   0.369   0.358   0.358   0.366   0.368   0.381   0.391   0.396   0.370   0.355   0.364   0.368   0.350   0.377   0.376   0.372   0.368   0.368   0.374   0.371   0.388   0.362   0.388   0.372   0.379   0.370   0.387   0.396   0.402   0.405   0.370   0.340   0.354   0.375   0.357   0.342   0.320   0.363   0.371   0.387   0.349   0.379   0.389   0.385   0.386   0.380   0.360   0.374   0.362   0.362   0.339   0.356   0.347   0.371   0.364   0.346   0.377   0.365   0.370   0.361   0.391   0.407   0.384   0.411   0.401   0.419   0.447   0.457   0.442   0.434   0.439   0.409   0.414   0.411   0.403   0.383   0.386   0.397   0.423   0.431   0.425   0.462   0.426   0.422   0.412   0.430   0.439   0.460   0.434   0.424   0.415   0.432   0.425   0.425   0.438   0.445   0.423   0.404   0.414   0.436   0.426   0.440   0.399   0.392   0.397   0.389
   196.30    0.424   0.410   0.389   0.375   0.372   0.366   0.373   0.372   0.395   0.390   0.364   0.385   0.353   0.338   0.347   0.348   0.350   0.327   0.350   0.360   0.353   0.378   0.395   0.414   0.397   0.369   0.384   0.387   0.369   0.339   0.329   0.343   0.336   0.299   0.287   0.316   0.347   0.345   0.344   0.358   0.370   0.372   0.388   0.377   0.362   0.361   0.341   0.371   0.351   0.328   0.332   0.345   0.345   0.331   0.338   0.359   0.355   0.378   0.356   0.385   0.383   0.347   0.340   0.335   0.330   0.324   0.309   0.327   0.301   0.314   0.294   0.302   0.305   0.318   0.310   0.319   0.329   0.328   0.329   0.340   0.347   0.357   0.357   0.373   0.368   0.348   0.362   0.370   0.352   0.354   0.338   0.355   0.367   0.369   0.374   0.361   0.370   0.360   0.386   0.368   0.361   0.374   0.375   0.367   0.367   0.387   0.381   0.366   0.342   0.341   0.358   0.373   0.381   0.397   0.394   0.381   0.390   0.360   0.356   0.354   0.368   0.364   0.342   0.347   0.357   0.364   0.365   0.352   0.370   0.376   0.367   0.386   0.399   0.369   0.386   0.385   0.370   0.367   0.336   0.346   0.348   0.340   0.363   0.353   0.380   0.385   0.386   0.411   0.428   0.409   0.407   0.412   0.437   0.456   0.488   0.472   0.463   0.427   0.411   0.425   0.422   0.396   0.405   0.380   0.399   0.397   0.438   0.437   0.438   0.427   0.422   0.443   0.436   0.469   0.488   0.451   0.416   0.406   0.399   0.413   0.404   0.421   0.402   0.384   0.377   0.408   0.413   0.427   0.423   0.399   0.378   0.394   0.369
   187.00    0.413   0.416   0.399   0.380   0.376   0.380   0.350   0.372   0.366   0.361   0.369   0.369   0.340   0.350   0.349   0.350   0.346   0.347   0.350   0.348   0.352   0.365   0.411   0.403   0.384   0.377   0.397   0.398   0.377   0.350   0.353   0.341   0.319   0.323   0.323   0.352   0.343   0.350   0.340   0.344   0.359   0.386   0.377   0.381   0.356   0.364   0.361   0.327   0.336   0.326   0.339   0.328   0.335   0.334   0.331   0.353   0.342   0.357   0.352   0.380   0.373   0.373   0.328   0.322   0.309   0.298   0.307   0.316   0.314   0.312   0.292   0.303   0.327   0.317   0.333   0.336   0.331   0.305   0.312   0.315   0.343   0.326   0.346   0.343   0.339   0.358   0.368   0.362   0.330   0.355   0.317   0.341   0.366   0.343   0.364   0.398   0.392   0.401   0.386   0.379   0.385   0.365   0.362   0.365   0.379   0.373   0.371   0.353   0.371   0.351   0.370   0.380   0.382   0.384   0.391   0.403   0.386   0.369   0.364   0.359   0.367   0.364   0.360   0.369   0.357   0.352   0.358   0.383   0.410   0.394   0.383   0.398   0.406   0.411   0.391   0.373   0.362   0.360   0.363   0.340   0.355   0.367   0.357   0.366   0.369   0.362   0.426   0.429   0.455   0.443   0.433   0.428   0.449   0.441   0.471   0.443   0.440   0.426   0.397   0.414   0.418   0.386   0.410   0.429   0.403   0.400   0.435   0.428   0.436   0.430   0.422   0.434   0.452   0.479   0.468   0.463   0.416   0.395   0.412   0.419   0.419   0.416   0.394   0.385   0.389   0.407   0.380   0.397   0.393   0.365   0.365   0.370   0.381
   177.70    0.398   0.394   0.388   0.377   0.371   0.372   0.363   0.379   0.378   0.379   0.346   0.336   0.348   0.352   0.345   0.336   0.347   0.338   0.351   0.371   0.379   0.390   0.417   0.435   0.404   0.421   0.386   0.378   0.387   0.361   0.362   0.341   0.343   0.351   0.361   0.330   0.339   0.323   0.316   0.331   0.357   0.369   0.375   0.365   0.363   0.365   0.349   0.328   0.328   0.329   0.324   0.320   0.334   0.324   0.340   0.347   0.354   0.331   0.347   0.369   0.364   0.363   0.349   0.314   0.311   0.294   0.298   0.321   0.331   0.351   0.313   0.321   0.340   0.337   0.332   0.343   0.340   0.323   0.322   0.333   0.329   0.337   0.331   0.341   0.353   0.339   0.367   0.357   0.353   0.338   0.327   0.357   0.357   0.374   0.391   0.420   0.405   0.397   0.393   0.390   0.347   0.365   0.371   0.366   0.368   0.392   0.373   0.370   0.345   0.339   0.366   0.372   0.374   0.359   0.394   0.377   0.374   0.402   0.389   0.372   0.379   0.402   0.372   0.374   0.368   0.339   0.344   0.371   0.407   0.400   0.390   0.397   0.420   0.399   0.387   0.390   0.406   0.391   0.358   0.368   0.376   0.356   0.374   0.365   0.363   0.369   0.400   0.441   0.422   0.430   0.455   0.464   0.453   0.464   0.452   0.413   0.441   0.387   0.377   0.391   0.415   0.409   0.433   0.421   0.435   0.432   0.438   0.426   0.450   0.436   0.444   0.436   0.431   0.457   0.444   0.417   0.421   0.381   0.417   0.416   0.412   0.404   0.376   0.364   0.367   0.368   0.398   0.386   0.382   0.375   0.350   0.353   0.371
   168.40    0.375   0.389   0.383   0.410   0.408   0.385   0.390   0.374   0.378   0.367   0.343   0.360   0.348   0.335   0.344   0.360   0.356   0.374   0.353   0.376   0.394   0.416   0.421   0.436   0.408   0.397   0.375   0.352   0.370   0.373   0.358   0.339   0.355   0.355   0.335   0.344   0.331   0.315   0.317   0.327   0.335   0.352   0.374   0.349   0.357   0.358   0.342   0.338   0.325   0.342   0.345   0.310   0.314   0.326   0.345   0.339   0.337   0.340   0.347   0.366   0.365   0.353   0.340   0.329   0.321   0.300   0.301   0.330   0.340   0.347   0.328   0.342   0.340   0.324   0.340   0.335   0.333   0.332   0.331   0.323   0.316   0.314   0.341   0.355   0.342   0.336   0.339   0.357   0.365   0.382   0.363   0.379   0.378   0.395   0.398   0.381   0.411   0.413   0.415   0.404   0.376   0.381   0.385   0.377   0.388   0.375   0.383   0.382   0.358   0.372   0.370   0.360   0.365   0.372   0.391   0.364   0.388   0.392   0.401   0.383   0.388   0.425   0.390   0.388   0.387   0.364   0.350   0.375   0.358   0.372   0.372   0.390   0.383   0.395   0.391   0.373   0.391   0.377   0.376   0.382   0.364   0.369   0.378   0.358   0.368   0.400   0.416   0.422   0.414   0.417   0.445   0.438   0.428   0.441   0.443   0.405   0.426   0.401   0.404   0.410   0.415   0.429   0.427   0.433   0.424   0.432   0.445   0.425   0.436   0.427   0.431   0.412   0.459   0.447   0.406   0.410   0.414   0.405   0.413   0.403   0.390   0.391   0.357   0.367   0.368   0.372   0.372   0.384   0.373   0.345   0.360   0.360   0.370
   159.10    0.375   0.376   0.365   0.400   0.388   0.369   0.386   0.358   0.368   0.326   0.347   0.366   0.348   0.359   0.328   0.347   0.319   0.333   0.360   0.374   0.421   0.421   0.380   0.397   0.417   0.407   0.371   0.361   0.362   0.370   0.367   0.355   0.325   0.356   0.351   0.333   0.322   0.336   0.337   0.331   0.336   0.343   0.355   0.354   0.365   0.366   0.350   0.321   0.345   0.342   0.342   0.352   0.321   0.337   0.337   0.341   0.331   0.370   0.368   0.359   0.339   0.378   0.347   0.334   0.323   0.330   0.320   0.335   0.337   0.354   0.330   0.323   0.326   0.343   0.322   0.339   0.335   0.318   0.317   0.326   0.326   0.297   0.327   0.361   0.342   0.356   0.343   0.369   0.356   0.367   0.388   0.384   0.374   0.377   0.395   0.394   0.421   0.416   0.419   0.383   0.370   0.367   0.365   0.388   0.397   0.376   0.388   0.397   0.386   0.375   0.362   0.356   0.385   0.386   0.373   0.381   0.383   0.373   0.379   0.373   0.403   0.412   0.403   0.393   0.370   0.385   0.376   0.366   0.361   0.369   0.410   0.418   0.396   0.405   0.383   0.370   0.388   0.380   0.396   0.396   0.400   0.385   0.379   0.346   0.387   0.413   0.393   0.401   0.404   0.413   0.419   0.421   0.412   0.412   0.416   0.397   0.397   0.415   0.414   0.385   0.386   0.392   0.388   0.412   0.409   0.420   0.437   0.389   0.400   0.401   0.395   0.398   0.417   0.431   0.419   0.408   0.386   0.373   0.378   0.364   0.360   0.369   0.348   0.363   0.363   0.384   0.380   0.371   0.356   0.377   0.361   0.373   0.362
   149.80    0.368   0.372   0.338   0.374   0.365   0.353   0.364   0.345   0.342   0.331   0.341   0.366   0.334   0.363   0.346   0.324   0.320   0.320   0.318   0.366   0.392   0.416   0.394   0.408   0.410   0.399   0.367   0.363   0.380   0.371   0.355   0.356   0.324   0.342   0.351   0.352   0.355   0.350   0.343   0.314   0.334   0.367   0.370   0.383   0.368   0.362   0.345   0.353   0.342   0.338   0.348   0.335   0.356   0.351   0.329   0.346   0.346   0.375   0.371   0.379   0.368   0.349   0.367   0.366   0.361   0.352   0.316   0.316   0.299   0.323   0.330   0.359   0.359   0.356   0.325   0.341   0.343   0.315   0.339   0.344   0.327   0.331   0.333   0.346   0.367   0.376   0.376   0.369   0.337   0.379   0.388   0.369   0.381   0.379   0.378   0.391   0.409   0.413   0.396   0.381   0.361   0.353   0.362   0.385   0.392   0.406   0.400   0.388   0.369   0.355   0.362   0.355   0.356   0.362   0.377   0.369   0.349   0.356   0.386   0.389   0.408   0.387   0.406   0.397   0.394   0.395   0.390   0.368   0.365   0.378   0.389   0.395   0.424   0.398   0.388   0.368   0.414   0.410   0.389   0.404   0.408   0.397   0.377   0.350   0.370   0.398   0.410   0.387   0.404   0.391   0.406   0.390   0.382   0.404   0.398   0.398   0.411   0.407   0.406   0.379   0.384   0.381   0.372   0.398   0.416   0.417   0.417   0.422   0.385   0.393   0.373   0.402   0.411   0.416   0.396   0.389   0.376   0.382   0.372   0.356   0.367   0.342   0.351   0.338   0.336   0.380   0.375   0.393   0.366   0.369   0.385   0.370   0.384
   140.50    0.372   0.368   0.353   0.354   0.348   0.344   0.367   0.322   0.346   0.315   0.328   0.344   0.342   0.336   0.326   0.300   0.324   0.295   0.307   0.325   0.354   0.382   0.386   0.399   0.388   0.375   0.356   0.369   0.357   0.363   0.333   0.362   0.357   0.369   0.359   0.358   0.362   0.351   0.345   0.351   0.343   0.363   0.350   0.371   0.359   0.331   0.342   0.342   0.361   0.337   0.345   0.334   0.347   0.362   0.357   0.370   0.392   0.386   0.374   0.374   0.373   0.375   0.372   0.359   0.376   0.379   0.343   0.314   0.292   0.316   0.326   0.348   0.357   0.378   0.320   0.328   0.334   0.340   0.328   0.360   0.370   0.335   0.373   0.387   0.388   0.389   0.401   0.366   0.360   0.379   0.369   0.368   0.354   0.381   0.384   0.360   0.394   0.390   0.385   0.372   0.400   0.399   0.393   0.350   0.375   0.397   0.389   0.378   0.359   0.344   0.356   0.347   0.347   0.355   0.361   0.355   0.377   0.374   0.376   0.388   0.367   0.397   0.403   0.396   0.377   0.400   0.385   0.369   0.377   0.364   0.380   0.394   0.408   0.405   0.427   0.437   0.444   0.427   0.421   0.430   0.415   0.405   0.393   0.388   0.395   0.411   0.400   0.388   0.389   0.383   0.384   0.361   0.362   0.400   0.393   0.400   0.410   0.400   0.384   0.373   0.357   0.359   0.399   0.380   0.400   0.409   0.410   0.398   0.372   0.390   0.396   0.372   0.376   0.382   0.389   0.377   0.364   0.354   0.351   0.348   0.353   0.338   0.349   0.327   0.345   0.377   0.371   0.382   0.369   0.355   0.355   0.393   0.387
   131.20    0.358   0.359   0.358   0.366   0.376   0.360   0.373   0.355   0.332   0.305   0.309   0.319   0.301   0.298   0.310   0.303   0.323   0.322   0.300   0.308   0.336   0.348   0.377   0.391   0.406   0.377   0.353   0.360   0.352   0.376   0.340   0.337   0.354   0.366   0.361   0.362   0.373   0.375   0.355   0.354   0.348   0.332   0.327   0.340   0.348   0.327   0.337   0.334   0.335   0.370   0.364   0.342   0.359   0.360   0.383   0.371   0.390   0.384   0.381   0.388   0.365   0.351   0.361   0.346   0.376   0.372   0.370   0.344   0.314   0.339   0.336   0.352   0.385   0.339   0.340   0.325   0.319   0.335   0.337   0.368   0.384   0.369   0.365   0.356   0.370   0.373   0.389   0.382   0.389   0.374   0.384   0.342   0.344   0.370   0.359   0.367   0.379   0.365   0.376   0.383   0.382   0.392   0.373   0.358   0.376   0.370   0.366   0.356   0.346   0.345   0.366   0.357   0.348   0.335   0.338   0.356   0.374   0.396   0.373   0.358   0.366   0.384   0.386   0.383   0.382   0.393   0.394   0.396   0.378   0.375   0.403   0.398   0.395   0.397   0.408   0.423   0.405   0.424   0.440   0.453   0.436   0.422   0.390   0.393   0.424   0.409   0.382   0.365   0.361   0.364   0.365   0.363   0.361   0.376   0.407   0.403   0.389   0.381   0.370   0.359   0.349   0.365   0.362   0.374   0.414   0.389   0.383   0.401   0.365   0.363   0.380   0.400   0.392   0.377   0.386   0.374   0.360   0.327   0.338   0.317   0.336   0.341   0.329   0.352   0.340   0.364   0.378   0.372   0.353   0.369   0.365   0.378   0.417
   121.90    0.363   0.364   0.379   0.395   0.382   0.350   0.358   0.356   0.312   0.302   0.289   0.303   0.322   0.289   0.285   0.295   0.327   0.324   0.324   0.322   0.328   0.341   0.354   0.389   0.397   0.383   0.405   0.388   0.396   0.381   0.393   0.358   0.339   0.351   0.368   0.376   0.363   0.360   0.366   0.371   0.356   0.350   0.350   0.338   0.345   0.352   0.352   0.373   0.371   0.360   0.347   0.362   0.364   0.371   0.390   0.393   0.380   0.363   0.371   0.386   0.373   0.355   0.327   0.348   0.349   0.372   0.352   0.326   0.326   0.326   0.340   0.345   0.364   0.376   0.357   0.350   0.337   0.333   0.344   0.373   0.365   0.369   0.366   0.351   0.348   0.352   0.375   0.367   0.384   0.402   0.378   0.358   0.362   0.362   0.349   0.355   0.348   0.365   0.357   0.372   0.388   0.390   0.389   0.358   0.346   0.371   0.356   0.355   0.359   0.345   0.345   0.352   0.331   0.325   0.340   0.351   0.365   0.375   0.355   0.348   0.364   0.365   0.370   0.360   0.362   0.378   0.372   0.380   0.389   0.396   0.416   0.408   0.380   0.386   0.440   0.436   0.420   0.430   0.438   0.422   0.399   0.397   0.403   0.407   0.407   0.397   0.374   0.360   0.373   0.360   0.358   0.358   0.341   0.373   0.382   0.369   0.366   0.350   0.360   0.371   0.370   0.380   0.363   0.374   0.375   0.376   0.367   0.366   0.343   0.343   0.370   0.397   0.398   0.398   0.400   0.382   0.362   0.323   0.312   0.303   0.327   0.316   0.336   0.334   0.338   0.351   0.351   0.374   0.375   0.365   0.383   0.401   0.423
   112.60    0.373   0.375   0.400   0.405   0.390   0.384   0.368   0.349   0.312   0.277   0.278   0.305   0.308   0.312   0.275   0.309   0.322   0.328   0.330   0.348   0.332   0.340   0.380   0.389   0.387   0.382   0.402   0.397   0.416   0.410   0.393   0.375   0.354   0.340   0.374   0.366   0.372   0.380   0.371   0.386   0.375   0.339   0.374   0.326   0.341   0.332   0.313   0.342   0.359   0.352   0.364   0.354   0.351   0.365   0.344   0.348   0.376   0.383   0.386   0.351   0.361   0.349   0.346   0.338   0.342   0.345   0.325   0.302   0.301   0.316   0.348   0.322   0.343   0.354   0.373   0.357   0.343   0.352   0.346   0.353   0.345   0.362   0.366   0.373   0.354   0.330   0.356   0.375   0.371   0.369   0.384   0.369   0.348   0.363   0.361   0.382   0.372   0.363   0.371   0.369   0.378   0.363   0.347   0.368   0.349   0.348   0.366   0.360   0.344   0.330   0.307   0.310   0.326   0.329   0.358   0.345   0.365   0.371   0.358   0.349   0.341   0.330   0.360   0.363   0.388   0.405   0.389   0.373   0.388   0.411   0.417   0.418   0.392   0.401   0.413   0.416   0.420   0.419   0.432   0.417   0.394   0.399   0.434   0.422   0.407   0.405   0.396   0.391   0.392   0.374   0.337   0.351   0.373   0.377   0.395   0.390   0.384   0.358   0.357   0.368   0.355   0.348   0.354   0.354   0.371   0.383   0.383   0.377   0.344   0.366   0.370   0.397   0.406   0.396   0.398   0.370   0.348   0.343   0.338   0.301   0.314   0.319   0.328   0.339   0.346   0.348   0.344   0.373   0.392   0.362   0.364   0.394   0.413
   103.30    0.355   0.352   0.382   0.403   0.415   0.365   0.364   0.349   0.338   0.325   0.327   0.349   0.325   0.311   0.301   0.309   0.312   0.313   0.327   0.331   0.337   0.384   0.380   0.373   0.379   0.404   0.399   0.426   0.426   0.389   0.386   0.342   0.348   0.357   0.354   0.346   0.343   0.369   0.377   0.373   0.348   0.370   0.330   0.356   0.350   0.370   0.344   0.340   0.356   0.362   0.348   0.348   0.345   0.353   0.346   0.330   0.358   0.356   0.380   0.357   0.346   0.346   0.357   0.346   0.329   0.350   0.328   0.298   0.325   0.333   0.377   0.369   0.351   0.359   0.370   0.347   0.347   0.363   0.359   0.322   0.355   0.367   0.376   0.379   0.370   0.346   0.327   0.350   0.337   0.346   0.345   0.339   0.337   0.359   0.383   0.376   0.373   0.343   0.370   0.366   0.375   0.379   0.323   0.352   0.343   0.347   0.345   0.336   0.309   0.303   0.312   0.293   0.305   0.345   0.356   0.358   0.370   0.381   0.362   0.359   0.377   0.355   0.350   0.385   0.414   0.408   0.384   0.381   0.411   0.404   0.397   0.405   0.407   0.389   0.407   0.405   0.410   0.417   0.395   0.434   0.411   0.406   0.437   0.415   0.404   0.417   0.421   0.414   0.379   0.383   0.367   0.359   0.369   0.397   0.403   0.374   0.404   0.408   0.394   0.365   0.367   0.331   0.350   0.357   0.363   0.379   0.379   0.381   0.366   0.373   0.349   0.368   0.391   0.379   0.383   0.370   0.356   0.320   0.321   0.315   0.325   0.328   0.340   0.352   0.342   0.340   0.334   0.349   0.370   0.370   0.370   0.368   0.383
    94.00    0.363   0.382   0.371   0.371   0.376   0.372   0.369   0.356   0.359   0.341   0.328   0.331   0.330   0.319   0.295   0.296   0.321   0.311   0.293   0.296   0.317   0.361   0.381   0.379   0.366   0.375   0.387   0.418   0.439   0.410   0.378   0.351   0.356   0.344   0.334   0.323   0.338   0.349   0.365   0.358   0.350   0.361   0.381   0.371   0.371   0.359   0.339   0.339   0.328   0.356   0.356   0.363   0.339   0.358   0.363   0.360   0.354   0.338   0.348   0.347   0.338   0.342   0.333   0.357   0.341   0.318   0.334   0.314   0.356   0.381   0.391   0.374   0.363   0.374   0.359   0.351   0.342   0.358   0.380   0.349   0.356   0.385   0.401   0.368   0.375   0.363   0.333   0.351   0.345   0.323   0.330   0.343   0.328   0.336   0.370   0.366   0.380   0.363   0.357   0.375   0.395   0.374   0.358   0.362   0.354   0.315   0.332   0.325   0.331   0.319   0.314   0.309   0.343   0.366   0.360   0.362   0.353   0.361   0.361   0.379   0.381   0.393   0.371   0.396   0.424   0.398   0.402   0.362   0.373   0.372   0.388   0.390   0.387   0.394   0.380   0.390   0.391   0.416   0.425   0.433   0.391   0.430   0.417   0.441   0.410   0.417   0.414   0.409   0.417   0.373   0.378   0.365   0.394   0.386   0.382   0.378   0.366   0.385   0.380   0.351   0.330   0.337   0.358   0.333   0.341   0.376   0.374   0.390   0.354   0.367   0.367   0.371   0.351   0.373   0.376   0.355   0.345   0.345   0.325   0.322   0.292   0.319   0.305   0.328   0.311   0.312   0.324   0.347   0.365   0.359   0.376   0.371   0.377
    84.70    0.359   0.371   0.366   0.380   0.394   0.395   0.379   0.353   0.338   0.357   0.348   0.321   0.324   0.295   0.295   0.308   0.304   0.305   0.322   0.329   0.362   0.372   0.384   0.401   0.389   0.402   0.385   0.412   0.425   0.418   0.371   0.369   0.354   0.361   0.355   0.333   0.338   0.325   0.359   0.361   0.346   0.355   0.355   0.373   0.349   0.332   0.339   0.366   0.370   0.349   0.379   0.373   0.373   0.359   0.372   0.376   0.336   0.336   0.330   0.325   0.328   0.311   0.328   0.343   0.357   0.338   0.327   0.328   0.349   0.369   0.390   0.378   0.403   0.354   0.330   0.328   0.330   0.368   0.376   0.365   0.348   0.364   0.376   0.358   0.360   0.369   0.367   0.356   0.328   0.305   0.305   0.336   0.319   0.353   0.360   0.373   0.382   0.377   0.367   0.382   0.381   0.381   0.337   0.350   0.337   0.339   0.321   0.330   0.340   0.354   0.328   0.337   0.349   0.353   0.339   0.326   0.335   0.333   0.350   0.360   0.375   0.402   0.380   0.392   0.435   0.421   0.401   0.380   0.352   0.388   0.369   0.369   0.367   0.395   0.383   0.388   0.396   0.387   0.414   0.413   0.409   0.428   0.403   0.431   0.408   0.438   0.414   0.407   0.385   0.378   0.370   0.376   0.411   0.422   0.406   0.393   0.371   0.385   0.392   0.343   0.320   0.347   0.343   0.332   0.367   0.374   0.349   0.361   0.373   0.370   0.367   0.370   0.364   0.347   0.354   0.349   0.356   0.363   0.353   0.327   0.340   0.327   0.324   0.333   0.335   0.341   0.334   0.345   0.352   0.356   0.350   0.361   0.358
    75.40    0.348   0.355   0.389   0.393   0.385   0.391   0.378   0.351   0.361   0.386   0.358   0.326   0.350   0.322   0.307   0.291   0.292   0.300   0.332   0.330   0.367   0.382   0.387   0.392   0.375   0.402   0.407   0.415   0.413   0.383   0.352   0.357   0.358   0.364   0.356   0.328   0.344   0.329   0.349   0.328   0.339   0.338   0.370   0.352   0.333   0.343   0.354   0.350   0.353   0.370   0.373   0.368   0.362   0.344   0.370   0.372   0.341   0.337   0.309   0.322   0.309   0.318   0.343   0.358   0.365   0.345   0.332   0.337   0.366   0.384   0.359   0.376   0.392   0.367   0.344   0.339   0.371   0.361   0.352   0.361   0.369   0.347   0.377   0.357   0.342   0.343   0.341   0.337   0.318   0.299   0.298   0.314   0.312   0.340   0.337   0.339   0.371   0.368   0.360   0.364   0.350   0.378   0.357   0.363   0.347   0.328   0.343   0.360   0.372   0.351   0.346   0.330   0.341   0.328   0.319   0.330   0.344   0.333   0.349   0.373   0.363   0.396   0.400   0.375   0.400   0.393   0.407   0.388   0.388   0.376   0.386   0.366   0.371   0.383   0.386   0.419   0.374   0.402   0.402   0.405   0.414   0.420   0.414   0.423   0.432   0.430   0.399   0.390   0.396   0.375   0.377   0.385   0.431   0.413   0.423   0.384   0.364   0.366   0.364   0.319   0.302   0.309   0.345   0.377   0.390   0.353   0.362   0.356   0.367   0.358   0.342   0.328   0.320   0.343   0.340   0.351   0.337   0.346   0.343   0.327   0.337   0.365   0.344   0.344   0.383   0.368   0.349   0.356   0.362   0.351   0.343   0.361   0.365
    66.10    0.378   0.360   0.365   0.360   0.361   0.393   0.376   0.370   0.362   0.355   0.369   0.366   0.331   0.304   0.312   0.322   0.323   0.319   0.327   0.376   0.381   0.384   0.391   0.398   0.397   0.395   0.403   0.411   0.413   0.375   0.335   0.366   0.364   0.355   0.337   0.337   0.325   0.329   0.322   0.333   0.342   0.358   0.373   0.367   0.356   0.373   0.341   0.375   0.352   0.360   0.367   0.359   0.364   0.368   0.373   0.347   0.364   0.325   0.334   0.329   0.321   0.321   0.369   0.348   0.378   0.365   0.346   0.343   0.359   0.375   0.376   0.359   0.383   0.357   0.353   0.353   0.367   0.359   0.360   0.366   0.365   0.375   0.372   0.347   0.350   0.340   0.337   0.330   0.332   0.308   0.318   0.333   0.330   0.354   0.358   0.350   0.350   0.359   0.365   0.353   0.357   0.347   0.348   0.342   0.346   0.334   0.365   0.367   0.379   0.378   0.359   0.321   0.313   0.311   0.323   0.320   0.341   0.347   0.393   0.382   0.387   0.399   0.400   0.390   0.390   0.400   0.388   0.371   0.368   0.386   0.398   0.392   0.387   0.392   0.396   0.400   0.389   0.389   0.414   0.417   0.423   0.432   0.434   0.427   0.405   0.412   0.406   0.402   0.380   0.384   0.385   0.376   0.424   0.409   0.406   0.391   0.353   0.344   0.330   0.312   0.291   0.328   0.334   0.377   0.374   0.361   0.359   0.360   0.372   0.343   0.328   0.319   0.328   0.374   0.365   0.378   0.355   0.349   0.371   0.344   0.366   0.380   0.364   0.348   0.365   0.355   0.340   0.338   0.341   0.346   0.349   0.314   0.347
    56.80    0.371   0.373   0.354   0.369   0.403   0.398   0.397   0.402   0.394   0.375   0.385   0.370   0.360   0.358   0.343   0.349   0.332   0.343   0.369   0.398   0.400   0.419   0.408   0.424   0.430   0.426   0.404   0.395   0.384   0.390   0.353   0.351   0.337   0.329   0.334   0.320   0.312   0.331   0.310   0.363   0.348   0.338   0.373   0.389   0.343   0.358   0.355   0.381   0.361   0.370   0.365   0.349   0.332   0.343   0.375   0.365   0.357   0.326   0.331   0.310   0.330   0.345   0.355   0.364   0.390   0.364   0.372   0.375   0.352   0.354   0.393   0.414   0.390   0.362   0.374   0.364   0.380   0.401   0.393   0.386   0.389   0.371   0.381   0.364   0.335   0.360   0.324   0.350   0.344   0.329   0.325   0.327   0.324   0.332   0.349   0.344   0.361   0.343   0.365   0.377   0.379   0.362   0.333   0.347   0.340   0.337   0.361   0.346   0.384   0.375   0.351   0.341   0.338   0.321   0.321   0.336   0.339   0.351   0.403   0.379   0.392   0.420   0.421   0.411   0.392   0.381   0.378   0.371   0.379   0.387   0.408   0.390   0.364   0.390   0.383   0.376   0.404   0.383   0.410   0.387   0.384   0.395   0.398   0.410   0.403   0.416   0.407   0.397   0.394   0.382   0.384   0.380   0.382   0.401   0.383   0.394   0.368   0.333   0.322   0.334   0.329   0.331   0.332   0.351   0.399   0.391   0.365   0.361   0.373   0.338   0.328   0.324   0.356   0.361   0.386   0.391   0.353   0.366   0.362   0.352   0.361   0.387   0.387   0.382   0.373   0.367   0.340   0.362   0.358   0.377   0.360   0.351   0.330
    47.50    0.378   0.367   0.343   0.360   0.396   0.431   0.414   0.413   0.385   0.387   0.383   0.367   0.361   0.361   0.382   0.352   0.358   0.384   0.367   0.380   0.398   0.409   0.427   0.403   0.416   0.415   0.404   0.385   0.369   0.382   0.374   0.371   0.372   0.328   0.316   0.320   0.302   0.315   0.326   0.343   0.344   0.341   0.345   0.376   0.355   0.372   0.389   0.377   0.377   0.374   0.361   0.338   0.319   0.317   0.326   0.355   0.351   0.354   0.333   0.312   0.311   0.332   0.362   0.375   0.386   0.392   0.382   0.367   0.355   0.389   0.374   0.392   0.372   0.353   0.355   0.385   0.372   0.407   0.398   0.377   0.389   0.372   0.372   0.340   0.343   0.335   0.318   0.337   0.363   0.359   0.337   0.319   0.336   0.362   0.336   0.324   0.334   0.323   0.341   0.360   0.390   0.369   0.355   0.346   0.352   0.354   0.348   0.353   0.371   0.390   0.350   0.367   0.337   0.334   0.339   0.332   0.335   0.370   0.377   0.387   0.394   0.420   0.426   0.432   0.389   0.366   0.367   0.354   0.362   0.375   0.388   0.382   0.358   0.382   0.376   0.345   0.377   0.374   0.386   0.378   0.392   0.389   0.402   0.404   0.424   0.417   0.380   0.396   0.408   0.404   0.387   0.385   0.385   0.406   0.393   0.393   0.367   0.359   0.363   0.354   0.350   0.343   0.337   0.333   0.376   0.365   0.352   0.371   0.359   0.336   0.330   0.334   0.359   0.366   0.395   0.364   0.378   0.363   0.367   0.367   0.360   0.371   0.381   0.361   0.364   0.363   0.353   0.360   0.368   0.360   0.362   0.363   0.376
    38.20    0.372   0.374   0.379   0.387   0.405   0.411   0.400   0.397   0.413   0.390   0.369   0.379   0.380   0.375   0.397   0.367   0.376   0.404   0.403   0.398   0.405   0.402   0.382   0.390   0.407   0.427   0.408   0.397   0.385   0.380   0.381   0.382   0.385   0.356   0.330   0.318   0.316   0.308   0.307   0.311   0.339   0.365   0.347   0.371   0.402   0.372   0.369   0.385   0.385   0.396   0.357   0.330   0.301   0.304   0.309   0.335   0.351   0.363   0.344   0.324   0.327   0.331   0.332   0.362   0.369   0.380   0.373   0.362   0.381   0.408   0.375   0.374   0.352   0.344   0.337   0.343   0.381   0.404   0.387   0.366   0.382   0.372   0.351   0.362   0.325   0.340   0.333   0.342   0.344   0.349   0.329   0.327   0.322   0.361   0.353   0.334   0.310   0.315   0.356   0.361   0.366   0.362   0.359   0.341   0.327   0.341   0.358   0.338   0.365   0.369   0.364   0.365   0.356   0.340   0.329   0.338   0.345   0.359   0.372   0.371   0.388   0.403   0.398   0.416   0.404   0.373   0.359   0.350   0.346   0.356   0.364   0.365   0.361   0.347   0.358   0.338   0.336   0.364   0.367   0.357   0.384   0.389   0.402   0.410   0.389   0.386   0.364   0.380   0.367   0.371   0.363   0.369   0.393   0.382   0.389   0.362   0.345   0.362   0.368   0.350   0.341   0.329   0.324   0.331   0.342   0.344   0.348   0.347   0.338   0.357   0.354   0.338   0.352   0.342   0.352   0.354   0.337   0.353   0.351   0.362   0.326   0.350   0.356   0.369   0.365   0.340   0.344   0.367   0.353   0.345   0.349   0.358   0.352
    28.90    0.370   0.386   0.384   0.379   0.403   0.403   0.391   0.388   0.397   0.382   0.390   0.382   0.358   0.394   0.396   0.390   0.376   0.388   0.381   0.369   0.384   0.387   0.376   0.364   0.382   0.397   0.400   0.427   0.407   0.395   0.390   0.392   0.396   0.346   0.334   0.329   0.323   0.303   0.323   0.330   0.329   0.336   0.370   0.373   0.374   0.363   0.401   0.378   0.392   0.388   0.375   0.342   0.325   0.300   0.328   0.360   0.362   0.358   0.354   0.341   0.331   0.325   0.319   0.332   0.353   0.346   0.373   0.390   0.384   0.412   0.413   0.379   0.376   0.349   0.353   0.328   0.380   0.391   0.381   0.375   0.371   0.359   0.337   0.372   0.352   0.346   0.345   0.334   0.343   0.348   0.334   0.352   0.345   0.366   0.350   0.356   0.330   0.335   0.364   0.366   0.352   0.365   0.375   0.353   0.332   0.345   0.326   0.345   0.362   0.362   0.352   0.377   0.372   0.343   0.327   0.367   0.340   0.335   0.343   0.373   0.372   0.391   0.407   0.434   0.411   0.404   0.340   0.341   0.348   0.364   0.344   0.342   0.331   0.323   0.319   0.345   0.332   0.343   0.359   0.371   0.381   0.401   0.390   0.408   0.375   0.387   0.371   0.382   0.357   0.356   0.365   0.397   0.364   0.361   0.368   0.357   0.317   0.324   0.353   0.363   0.345   0.324   0.319   0.324   0.357   0.324   0.337   0.350   0.347   0.338   0.342   0.320   0.326   0.361   0.330   0.334   0.324   0.326   0.321   0.348   0.331   0.343   0.354   0.372   0.352   0.329   0.306   0.335   0.351   0.336   0.359   0.357   0.364
    19.60    0.373   0.384   0.415   0.400   0.390   0.390   0.383   0.368   0.364   0.390   0.408   0.401   0.367   0.392   0.396   0.370   0.364   0.366   0.369   0.349   0.348   0.359   0.358   0.358   0.386   0.411   0.398   0.383   0.396   0.396   0.385   0.385   0.355   0.354   0.336   0.333   0.310   0.315   0.327   0.306   0.328   0.340   0.363   0.362   0.386   0.375   0.403   0.409   0.408   0.389   0.360   0.359   0.337   0.348   0.325   0.354   0.336   0.360   0.347   0.353   0.328   0.324   0.328   0.328   0.339   0.351   0.388   0.405   0.399   0.403   0.398   0.380   0.351   0.349   0.346   0.336   0.356   0.354   0.362   0.355   0.370   0.373   0.348   0.345   0.337   0.331   0.330   0.323   0.343   0.345   0.337   0.366   0.375   0.356   0.339   0.348   0.329   0.323   0.375   0.363   0.382   0.379   0.376   0.367   0.347   0.357   0.343   0.299   0.335   0.378   0.371   0.404   0.403   0.390   0.374   0.364   0.357   0.359   0.355   0.367   0.367   0.382   0.396   0.419   0.404   0.396   0.362   0.331   0.346   0.342   0.358   0.324   0.318   0.302   0.305   0.322   0.341   0.365   0.361   0.375   0.384   0.408   0.378   0.394   0.394   0.382   0.385   0.369   0.362   0.360   0.410   0.414   0.397   0.369   0.377   0.364   0.330   0.319   0.337   0.319   0.344   0.322   0.329   0.311   0.346   0.324   0.339   0.336   0.351   0.339   0.334   0.327   0.338   0.357   0.324   0.322   0.338   0.338   0.319   0.345   0.336   0.345   0.355   0.363   0.358   0.345   0.362   0.348   0.327   0.337   0.342   0.362   0.354
    10.30    0.376   0.354   0.383   0.378   0.368   0.371   0.389   0.374   0.392   0.391   0.376   0.353   0.350   0.394   0.419   0.400   0.369   0.386   0.362   0.350   0.345   0.328   0.349   0.368   0.370   0.388   0.375   0.369   0.378   0.390   0.369   0.362   0.379   0.352   0.340   0.335   0.344   0.341   0.347   0.322   0.325   0.355   0.350   0.353   0.371   0.364   0.377   0.374   0.379   0.377   0.376   0.379   0.347   0.341   0.370   0.345   0.364   0.361   0.358   0.363   0.312   0.324   0.328   0.318   0.334   0.364   0.392   0.408   0.405   0.385   0.384   0.369   0.379   0.362   0.361   0.352   0.362   0.342   0.347   0.356   0.378   0.346   0.320   0.329   0.327   0.314   0.335   0.344   0.337   0.326   0.338   0.364   0.374   0.359   0.343   0.341   0.344   0.338   0.391   0.365   0.374   0.353   0.375   0.361   0.319   0.331   0.333   0.328   0.344   0.364   0.395   0.403   0.394   0.400   0.386   0.373   0.366   0.362   0.366   0.342   0.370   0.370   0.378   0.402   0.412   0.374   0.381   0.355   0.328   0.335   0.328   0.336   0.330   0.343   0.318   0.318   0.349   0.360   0.343   0.344   0.376   0.374   0.396   0.379   0.375   0.391   0.377   0.356   0.374   0.376   0.423   0.392   0.427   0.392   0.408   0.381   0.335   0.314   0.318   0.315   0.329   0.343   0.327   0.357   0.354   0.342   0.356   0.361   0.352   0.361   0.342   0.347   0.373   0.345   0.348   0.327   0.325   0.323   0.325   0.328   0.348   0.339   0.366   0.375   0.372   0.343   0.364   0.361   0.347   0.339   0.357   0.359   0.362
     1.00    0.382   0.369   0.373   0.369   0.370   0.372   0.379   0.394   0.391   0.365   0.372   0.377   0.366   0.378   0.400   0.396   0.407   0.406   0.357   0.338   0.347   0.332   0.349   0.353   0.381   0.365   0.377   0.362   0.367   0.384   0.362   0.382   0.385   0.344   0.344   0.340   0.363   0.359   0.359   0.348   0.336   0.342   0.364   0.339   0.333   0.333   0.378   0.373   0.365   0.363   0.349   0.348   0.337   0.351   0.361   0.363   0.363   0.343   0.350   0.347   0.315   0.327   0.348   0.339   0.359   0.366   0.374   0.388   0.384   0.386   0.356   0.362   0.373   0.369   0.354   0.342   0.339   0.334   0.330   0.345   0.353   0.337   0.328   0.322   0.320   0.298   0.317   0.339   0.348   0.348   0.342   0.367   0.373   0.384   0.350   0.336   0.354   0.338   0.359   0.369   0.335   0.342   0.350   0.346   0.329   0.298   0.320   0.329   0.349   0.345   0.379   0.407   0.427   0.393   0.391   0.355   0.360   0.343   0.350   0.319   0.340   0.365   0.349   0.375   0.389   0.364   0.379   0.356   0.341   0.322   0.345   0.331   0.345   0.340   0.318   0.313   0.329   0.358   0.344   0.358   0.338   0.358   0.378   0.399   0.376   0.397   0.386   0.391   0.385   0.388   0.402   0.429   0.427   0.400   0.392   0.377   0.336   0.322   0.326   0.313   0.333   0.337   0.343   0.348   0.362   0.359   0.357   0.351   0.351   0.365   0.353   0.344   0.369   0.372   0.358   0.365   0.337   0.318   0.312   0.320   0.334   0.359   0.368   0.365   0.355   0.326   0.339   0.340   0.350   0.353   0.335   0.366   0.373

   Height   Standard deviation at grid points for the v component:
   354.40    0.321   0.337   0.350   0.331   0.316   0.306   0.301   0.316   0.313   0.302   0.306   0.311   0.331   0.337   0.346   0.362   0.349   0.337   0.327   0.349   0.337   0.325   0.329   0.331   0.324   0.322   0.330   0.301   0.302   0.304   0.285   0.282   0.291   0.283   0.306   0.312   0.325   0.343   0.326   0.326   0.320   0.318   0.337   0.317   0.303   0.309   0.311   0.303   0.308   0.313   0.321   0.305   0.306   0.312   0.309   0.316   0.305   0.307   0.310   0.318   0.313   0.313   0.316   0.325   0.292   0.293   0.309   0.310   0.316   0.302   0.312   0.304   0.301   0.289   0.278   0.284   0.286   0.301   0.293   0.278   0.288   0.295   0.320   0.323   0.321   0.327   0.326   0.310   0.307   0.299   0.279   0.286   0.288   0.279   0.286   0.303   0.299   0.293   0.293   0.271   0.276   0.294   0.292   0.306   0.312   0.310   0.291   0.282   0.288   0.285   0.289   0.294   0.283   0.288   0.292   0.283   0.283   0.296   0.292   0.298   0.309   0.312   0.307   0.288   0.284   0.302   0.297   0.287   0.299   0.298   0.308   0.312   0.316   0.336   0.330   0.338   0.323   0.324   0.305   0.329   0.328   0.317   0.331   0.323   0.317   0.311   0.310   0.301   0.300   0.300   0.314   0.288   0.284   0.298   0.294   0.311   0.318   0.324   0.308   0.299   0.304   0.317   0.320   0.321   0.320   0.314   0.322   0.312   0.333   0.316   0.328   0.313   0.306   0.302   0.321   0.339   0.340   0.326   0.328   0.323   0.325   0.319   0.316   0.320   0.314   0.317   0.322   0.307   0.305   0.306   0.297   0.296   0.292
   345.10    0.343   0.352   0.352   0.335   0.316   0.298   0.311   0.312   0.322   0.312   0.315   0.327   0.327   0.339   0.351   0.355   0.345   0.339   0.325   0.329   0.340   0.331   0.326   0.319   0.320   0.316   0.305   0.298   0.295   0.289   0.292   0.276   0.292   0.298   0.312   0.324   0.327   0.332   0.334   0.303   0.313   0.333   0.345   0.326   0.316   0.306   0.299   0.309   0.303   0.308   0.302   0.285   0.276   0.292   0.300   0.319   0.302   0.311   0.310   0.318   0.313   0.310   0.307   0.303   0.302   0.295   0.296   0.305   0.302   0.316   0.301   0.306   0.291   0.284   0.268   0.282   0.277   0.291   0.300   0.293   0.311   0.310   0.321   0.335   0.334   0.322   0.326   0.287   0.287   0.281   0.286   0.299   0.301   0.289   0.284   0.297   0.305   0.292   0.279   0.288   0.278   0.298   0.310   0.318   0.326   0.329   0.302   0.316   0.325   0.286   0.294   0.293   0.278   0.293   0.287   0.273   0.284   0.286   0.289   0.290   0.304   0.300   0.307   0.304   0.292   0.293   0.301   0.292   0.301   0.307   0.300   0.319   0.310   0.323   0.336   0.314   0.311   0.304   0.320   0.339   0.354   0.354   0.355   0.335   0.328   0.310   0.300   0.305   0.288   0.288   0.291   0.279   0.286   0.296   0.297   0.308   0.322   0.336   0.341   0.325   0.323   0.302   0.296   0.303   0.306   0.304   0.323   0.319   0.309   0.308   0.308   0.318   0.312   0.294   0.304   0.310   0.323   0.326   0.341   0.316   0.317   0.304   0.288   0.305   0.315   0.327   0.323   0.316   0.317   0.312   0.315   0.292   0.298
   335.80    0.343   0.356   0.356   0.363   0.338   0.330   0.318   0.325   0.328   0.323   0.328   0.326   0.344   0.361   0.359   0.366   0.341   0.317   0.306   0.314   0.323   0.319   0.322   0.324   0.322   0.306   0.302   0.283   0.282   0.284   0.300   0.289   0.306   0.308   0.311   0.323   0.319   0.322   0.322   0.312   0.310   0.323   0.330   0.318   0.302   0.292   0.304   0.310   0.294   0.301   0.295   0.286   0.273   0.273   0.282   0.289   0.307   0.308   0.298   0.315   0.324   0.300   0.299   0.289   0.297   0.292   0.292   0.290   0.296   0.299   0.297   0.305   0.288   0.272   0.275   0.283   0.282   0.297   0.291   0.284   0.309   0.341   0.331   0.319   0.317   0.329   0.323   0.317   0.291   0.291   0.284   0.307   0.300   0.307   0.303   0.308   0.307   0.307   0.304   0.288   0.274   0.287   0.306   0.315   0.322   0.303   0.305   0.327   0.297   0.299   0.283   0.284   0.268   0.274   0.275   0.299   0.291   0.295   0.283   0.288   0.269   0.293   0.304   0.307   0.288   0.273   0.276   0.285   0.298   0.304   0.303   0.318   0.317   0.316   0.317   0.316   0.305   0.313   0.334   0.346   0.354   0.361   0.353   0.333   0.318   0.324   0.311   0.302   0.293   0.290   0.290   0.293   0.284   0.293   0.304   0.315   0.317   0.330   0.344   0.332   0.330   0.304   0.301   0.302   0.308   0.307   0.297   0.290   0.299   0.299   0.295   0.297   0.300   0.303   0.314   0.323   0.337   0.323   0.337   0.320   0.323   0.311   0.299   0.292   0.315   0.314   0.312   0.337   0.325   0.313   0.327   0.307   0.300
   326.50    0.330   0.353   0.362   0.367   0.341   0.321   0.311   0.323   0.341   0.333   0.325   0.338   0.344   0.352   0.365   0.336   0.334   0.326   0.314   0.304   0.324   0.309   0.304   0.323   0.318   0.319   0.305   0.288   0.285   0.299   0.301   0.299   0.309   0.311   0.308   0.319   0.324   0.314   0.326   0.311   0.319   0.335   0.317   0.313   0.302   0.300   0.311   0.318   0.318   0.297   0.285   0.274   0.267   0.270   0.285   0.289   0.292   0.293   0.287   0.315   0.323   0.300   0.315   0.294   0.303   0.313   0.304   0.302   0.303   0.291   0.293   0.307   0.306   0.279   0.290   0.302   0.300   0.321   0.313   0.301   0.328   0.350   0.340   0.324   0.304   0.310   0.324   0.301   0.302   0.298   0.306   0.310   0.295   0.289   0.287   0.293   0.297   0.301   0.293   0.298   0.289   0.280   0.298   0.306   0.301   0.304   0.301   0.309   0.295   0.297   0.288   0.290   0.284   0.272   0.273   0.275   0.285   0.288   0.290   0.287   0.270   0.290   0.289   0.300   0.273   0.268   0.273   0.294   0.287   0.295   0.295   0.307   0.300   0.318   0.309   0.315   0.303   0.312   0.324   0.341   0.347   0.367   0.355   0.341   0.324   0.324   0.307   0.306   0.301   0.296   0.297   0.300   0.290   0.303   0.302   0.309   0.298   0.336   0.328   0.330   0.338   0.309   0.305   0.317   0.314   0.306   0.297   0.298   0.301   0.293   0.276   0.296   0.297   0.320   0.319   0.321   0.332   0.311   0.311   0.312   0.327   0.323   0.298   0.315   0.319   0.314   0.321   0.323   0.332   0.347   0.338   0.320   0.303
[...]
   103.30    0.185   0.187   0.190   0.185   0.192   0.192   0.191   0.186   0.182   0.189   0.183   0.186   0.190   0.190   0.185   0.186   0.184   0.181   0.180   0.177   0.184   0.190   0.195   0.190   0.184   0.186   0.190   0.186   0.181   0.182   0.183   0.188   0.186   0.180   0.180   0.184   0.188   0.189   0.191   0.191   0.188   0.190   0.192   0.188   0.190   0.193   0.189   0.190   0.187   0.192   0.191   0.183   0.179   0.183   0.193   0.197   0.197   0.199   0.194   0.191   0.191   0.184   0.189   0.188   0.189   0.191   0.199   0.198   0.192   0.193   0.187   0.185   0.183   0.184   0.186   0.186   0.185   0.189   0.186   0.183   0.191   0.192   0.185   0.189   0.194   0.194   0.198   0.197   0.199   0.199   0.193   0.193   0.196   0.195   0.196   0.197   0.192   0.192   0.190   0.183   0.186   0.185   0.194   0.188   0.194   0.196   0.198   0.207   0.206   0.204   0.202   0.196   0.194   0.189   0.187   0.191   0.186   0.181   0.185   0.189   0.187   0.184   0.190   0.191   0.199   0.186   0.190   0.182   0.179   0.180   0.181   0.189   0.194   0.188   0.186   0.184   0.185   0.184   0.191   0.190   0.192   0.187   0.186   0.188   0.184   0.185   0.189   0.187   0.187   0.189   0.188   0.193   0.197   0.194   0.197   0.192   0.192   0.194   0.203   0.205   0.200   0.200   0.194   0.193   0.192   0.192   0.185   0.182   0.189   0.187   0.191   0.187   0.191   0.187   0.187   0.194   0.190   0.193   0.188   0.187   0.181   0.186   0.185   0.184   0.185   0.191   0.198   0.189   0.189   0.190   0.185   0.187   0.192
    94.00    0.185   0.184   0.185   0.189   0.191   0.189   0.188   0.189   0.188   0.195   0.189   0.189   0.193   0.193   0.188   0.188   0.191   0.193   0.181   0.176   0.181   0.186   0.186   0.191   0.186   0.184   0.189   0.185   0.183   0.185   0.184   0.187   0.182   0.186   0.179   0.179   0.182   0.192   0.191   0.187   0.189   0.188   0.185   0.192   0.189   0.185   0.188   0.185   0.193   0.192   0.183   0.177   0.175   0.179   0.187   0.191   0.192   0.193   0.194   0.186   0.194   0.192   0.189   0.195   0.191   0.194   0.195   0.197   0.196   0.190   0.191   0.182   0.181   0.185   0.184   0.187   0.184   0.182   0.182   0.185   0.189   0.194   0.187   0.186   0.193   0.189   0.200   0.204   0.206   0.198   0.194   0.192   0.199   0.193   0.190   0.193   0.189   0.189   0.192   0.186   0.178   0.187   0.188   0.188   0.191   0.195   0.195   0.198   0.206   0.204   0.201   0.198   0.196   0.190   0.191   0.185   0.186   0.187   0.191   0.196   0.185   0.181   0.184   0.187   0.187   0.190   0.185   0.185   0.187   0.185   0.182   0.186   0.189   0.189   0.181   0.188   0.191   0.187   0.189   0.186   0.193   0.183   0.186   0.181   0.185   0.185   0.189   0.190   0.192   0.196   0.198   0.195   0.197   0.202   0.201   0.196   0.197   0.202   0.200   0.195   0.202   0.197   0.203   0.192   0.189   0.188   0.184   0.186   0.189   0.190   0.192   0.197   0.190   0.187   0.187   0.191   0.188   0.183   0.184   0.184   0.181   0.184   0.181   0.185   0.192   0.200   0.197   0.183   0.182   0.182   0.188   0.184   0.191
    84.70    0.190   0.187   0.185   0.192   0.197   0.184   0.192   0.193   0.198   0.192   0.195   0.191   0.195   0.195   0.188   0.189   0.188   0.192   0.187   0.186   0.186   0.184   0.188   0.187   0.187   0.175   0.181   0.183   0.185   0.178   0.185   0.181   0.179   0.179   0.178   0.178   0.181   0.192   0.198   0.191   0.193   0.189   0.184   0.181   0.185   0.182   0.182   0.183   0.183   0.183   0.184   0.180   0.181   0.180   0.186   0.189   0.189   0.187   0.189   0.193   0.186   0.188   0.186   0.186   0.193   0.197   0.194   0.194   0.198   0.189   0.191   0.184   0.183   0.187   0.186   0.186   0.188   0.192   0.192   0.189   0.187   0.185   0.190   0.194   0.187   0.189   0.197   0.201   0.197   0.201   0.195   0.198   0.198   0.197   0.186   0.187   0.185   0.184   0.188   0.189   0.182   0.183   0.186   0.187   0.188   0.195   0.199   0.196   0.196   0.196   0.203   0.203   0.197   0.196   0.197   0.191   0.190   0.189   0.187   0.193   0.192   0.180   0.181   0.184   0.183   0.187   0.190   0.191   0.187   0.185   0.185   0.184   0.182   0.184   0.184   0.188   0.189   0.189   0.190   0.191   0.187   0.185   0.189   0.185   0.187   0.179   0.191   0.192   0.194   0.198   0.193   0.191   0.201   0.195   0.198   0.201   0.198   0.197   0.197   0.191   0.192   0.190   0.198   0.196   0.188   0.183   0.185   0.187   0.192   0.189   0.187   0.188   0.194   0.192   0.190   0.186   0.182   0.188   0.184   0.183   0.187   0.182   0.183   0.182   0.184   0.189   0.187   0.188   0.180   0.180   0.189   0.184   0.192
    75.40    0.188   0.183   0.188   0.190   0.194   0.188   0.190   0.193   0.197   0.195   0.196   0.192   0.192   0.193   0.188   0.189   0.190   0.192   0.188   0.186   0.189   0.181   0.182   0.188   0.185   0.183   0.190   0.189   0.186   0.183   0.185   0.188   0.180   0.175   0.175   0.182   0.184   0.194   0.188   0.194   0.194   0.193   0.188   0.187   0.186   0.184   0.177   0.182   0.181   0.187   0.187   0.187   0.186   0.183   0.183   0.188   0.190   0.185   0.186   0.191   0.185   0.185   0.182   0.185   0.194   0.193   0.194   0.192   0.193   0.192   0.191   0.191   0.189   0.189   0.187   0.185   0.192   0.197   0.190   0.190   0.193   0.192   0.194   0.192   0.187   0.193   0.194   0.203   0.198   0.202   0.201   0.199   0.193   0.186   0.187   0.184   0.190   0.187   0.185   0.187   0.182   0.188   0.191   0.183   0.184   0.194   0.200   0.189   0.195   0.194   0.201   0.199   0.197   0.198   0.196   0.190   0.192   0.191   0.195   0.189   0.188   0.186   0.190   0.188   0.188   0.191   0.188   0.192   0.189   0.196   0.183   0.179   0.181   0.186   0.185   0.186   0.189   0.184   0.192   0.187   0.193   0.185   0.188   0.185   0.187   0.181   0.192   0.197   0.194   0.189   0.199   0.198   0.200   0.197   0.189   0.196   0.198   0.195   0.192   0.189   0.194   0.189   0.187   0.188   0.188   0.194   0.186   0.186   0.190   0.184   0.188   0.190   0.195   0.189   0.191   0.188   0.183   0.190   0.190   0.189   0.192   0.189   0.185   0.184   0.191   0.192   0.187   0.187   0.184   0.185   0.188   0.185   0.189
    66.10    0.189   0.184   0.186   0.194   0.192   0.191   0.191   0.199   0.198   0.196   0.192   0.193   0.191   0.189   0.193   0.193   0.188   0.197   0.195   0.194   0.184   0.179   0.181   0.177   0.184   0.180   0.184   0.190   0.189   0.186   0.184   0.191   0.182   0.180   0.183   0.183   0.181   0.186   0.188   0.194   0.192   0.190   0.193   0.182   0.181   0.183   0.180   0.181   0.186   0.193   0.188   0.186   0.192   0.186   0.188   0.188   0.183   0.180   0.182   0.191   0.191   0.186   0.184   0.182   0.186   0.191   0.195   0.191   0.193   0.199   0.198   0.192   0.191   0.183   0.186   0.183   0.188   0.195   0.197   0.188   0.188   0.195   0.193   0.191   0.192   0.191   0.191   0.199   0.203   0.201   0.196   0.196   0.191   0.190   0.182   0.184   0.183   0.184   0.179   0.184   0.187   0.191   0.183   0.183   0.187   0.192   0.198   0.194   0.199   0.192   0.196   0.197   0.193   0.195   0.187   0.189   0.194   0.190   0.185   0.191   0.190   0.192   0.192   0.197   0.196   0.196   0.196   0.187   0.191   0.191   0.179   0.187   0.183   0.186   0.192   0.185   0.183   0.188   0.183   0.187   0.187   0.184   0.180   0.184   0.185   0.184   0.188   0.189   0.191   0.192   0.194   0.197   0.205   0.205   0.202   0.198   0.200   0.193   0.194   0.191   0.193   0.198   0.185   0.188   0.188   0.189   0.185   0.184   0.187   0.191   0.194   0.194   0.198   0.194   0.192   0.188   0.184   0.184   0.191   0.189   0.189   0.191   0.190   0.187   0.184   0.192   0.196   0.198   0.185   0.181   0.186   0.189   0.191
    56.80    0.192   0.187   0.190   0.189   0.193   0.197   0.198   0.195   0.199   0.199   0.193   0.194   0.187   0.191   0.191   0.193   0.195   0.195   0.191   0.186   0.184   0.179   0.188   0.178   0.179   0.189   0.189   0.188   0.189   0.183   0.184   0.185   0.179   0.184   0.183   0.184   0.183   0.191   0.186   0.189   0.185   0.188   0.186   0.181   0.181   0.187   0.187   0.187   0.186   0.185   0.187   0.189   0.191   0.187   0.187   0.187   0.184   0.184   0.185   0.186   0.188   0.183   0.185   0.185   0.186   0.191   0.188   0.194   0.197   0.194   0.189   0.189   0.187   0.185   0.189   0.188   0.195   0.194   0.189   0.192   0.194   0.190   0.187   0.191   0.196   0.195   0.195   0.197   0.199   0.201   0.198   0.190   0.188   0.190   0.183   0.192   0.185   0.182   0.180   0.181   0.186   0.182   0.180   0.181   0.189   0.191   0.196   0.195   0.193   0.192   0.197   0.197   0.189   0.189   0.186   0.188   0.193   0.188   0.184   0.189   0.197   0.197   0.201   0.192   0.198   0.197   0.202   0.188   0.192   0.185   0.185   0.191   0.193   0.195   0.194   0.191   0.184   0.189   0.188   0.186   0.190   0.188   0.182   0.185   0.186   0.183   0.187   0.192   0.192   0.198   0.194   0.194   0.202   0.202   0.201   0.195   0.192   0.194   0.188   0.188   0.187   0.197   0.186   0.189   0.187   0.194   0.193   0.187   0.191   0.192   0.193   0.193   0.192   0.194   0.195   0.191   0.192   0.186   0.187   0.194   0.190   0.197   0.196   0.190   0.186   0.194   0.201   0.197   0.194   0.187   0.194   0.192   0.193
    47.50    0.190   0.189   0.184   0.185   0.193   0.192   0.205   0.196   0.194   0.196   0.192   0.190   0.191   0.187   0.188   0.187   0.187   0.190   0.184   0.187   0.187   0.186   0.190   0.188   0.185   0.184   0.187   0.190   0.186   0.185   0.184   0.191   0.186   0.185   0.192   0.188   0.182   0.187   0.188   0.188   0.191   0.181   0.185   0.174   0.180   0.187   0.186   0.184   0.191   0.187   0.188   0.192   0.191   0.188   0.185   0.186   0.187   0.186   0.191   0.188   0.189   0.185   0.190   0.186   0.183   0.182   0.191   0.191   0.189   0.188   0.182   0.192   0.185   0.192   0.184   0.192   0.189   0.188   0.187   0.195   0.194   0.196   0.197   0.194   0.192   0.190   0.192   0.195   0.200   0.196   0.198   0.193   0.193   0.193   0.182   0.186   0.184   0.183   0.181   0.184   0.183   0.185   0.180   0.184   0.189   0.193   0.193   0.192   0.189   0.194   0.192   0.192   0.193   0.195   0.190   0.182   0.191   0.189   0.188   0.190   0.193   0.195   0.197   0.199   0.187   0.194   0.194   0.194   0.193   0.189   0.195   0.193   0.190   0.190   0.194   0.195   0.187   0.191   0.191   0.190   0.190   0.191   0.195   0.191   0.185   0.189   0.193   0.196   0.199   0.193   0.190   0.187   0.196   0.205   0.207   0.206   0.199   0.195   0.193   0.193   0.193   0.198   0.189   0.189   0.191   0.188   0.195   0.198   0.193   0.191   0.195   0.196   0.193   0.188   0.198   0.193   0.194   0.193   0.186   0.194   0.190   0.198   0.197   0.189   0.185   0.200   0.199   0.197   0.192   0.192   0.193   0.191   0.196
    38.20    0.193   0.187   0.190   0.191   0.190   0.188   0.192   0.192   0.196   0.191   0.191   0.191   0.193   0.187   0.186   0.183   0.179   0.189   0.192   0.184   0.188   0.189   0.188   0.190   0.189   0.189   0.192   0.194   0.197   0.193   0.193   0.187   0.189   0.185   0.184   0.186   0.191   0.193   0.190   0.187   0.189   0.178   0.176   0.173   0.182   0.185   0.186   0.183   0.187   0.187   0.186   0.193   0.193   0.191   0.188   0.186   0.182   0.184   0.193   0.197   0.195   0.185   0.180   0.183   0.185   0.187   0.196   0.192   0.199   0.187   0.179   0.181   0.182   0.188   0.192   0.189   0.188   0.185   0.188   0.195   0.192   0.194   0.195   0.193   0.187   0.192   0.197   0.193   0.190   0.197   0.188   0.191   0.190   0.195   0.195   0.189   0.186   0.180   0.179   0.182   0.187   0.186   0.182   0.181   0.189   0.191   0.192   0.191   0.188   0.185   0.188   0.195   0.198   0.186   0.186   0.174   0.182   0.181   0.191   0.189   0.192   0.199   0.195   0.197   0.201   0.197   0.195   0.193   0.196   0.194   0.195   0.199   0.196   0.190   0.190   0.198   0.192   0.195   0.190   0.192   0.189   0.190   0.187   0.185   0.183   0.190   0.200   0.194   0.198   0.199   0.192   0.189   0.192   0.193   0.195   0.200   0.196   0.188   0.191   0.183   0.192   0.196   0.185   0.191   0.199   0.193   0.190   0.197   0.193   0.194   0.193   0.196   0.192   0.195   0.193   0.193   0.194   0.191   0.197   0.191   0.187   0.190   0.192   0.189   0.194   0.194   0.200   0.197   0.189   0.185   0.187   0.187   0.191
    28.90    0.190   0.185   0.187   0.187   0.198   0.198   0.196   0.196   0.195   0.199   0.188   0.189   0.188   0.189   0.184   0.184   0.184   0.187   0.189   0.187   0.182   0.191   0.187   0.187   0.181   0.189   0.189   0.191   0.193   0.196   0.192   0.190   0.190   0.180   0.181   0.179   0.189   0.195   0.185   0.190   0.187   0.178   0.177   0.177   0.180   0.185   0.178   0.182   0.191   0.191   0.193   0.189   0.196   0.191   0.187   0.179   0.176   0.185   0.195   0.195   0.193   0.185   0.187   0.190   0.185   0.189   0.195   0.200   0.190   0.190   0.181   0.178   0.177   0.188   0.187   0.188   0.191   0.187   0.191   0.190   0.200   0.193   0.197   0.200   0.203   0.203   0.199   0.196   0.192   0.187   0.191   0.189   0.189   0.189   0.192   0.191   0.185   0.177   0.179   0.184   0.185   0.184   0.183   0.188   0.189   0.185   0.188   0.189   0.189   0.190   0.191   0.193   0.192   0.184   0.190   0.184   0.184   0.193   0.189   0.186   0.196   0.194   0.196   0.198   0.201   0.198   0.200   0.203   0.189   0.199   0.194   0.197   0.194   0.188   0.189   0.190   0.193   0.201   0.201   0.199   0.193   0.191   0.184   0.178   0.183   0.188   0.192   0.189   0.198   0.194   0.189   0.189   0.193   0.196   0.188   0.196   0.190   0.192   0.195   0.195   0.194   0.193   0.185   0.192   0.194   0.193   0.183   0.190   0.189   0.193   0.195   0.187   0.187   0.188   0.188   0.195   0.192   0.189   0.193   0.194   0.184   0.186   0.192   0.193   0.194   0.194   0.199   0.192   0.186   0.190   0.186   0.192   0.192
    19.60    0.193   0.187   0.191   0.187   0.193   0.196   0.191   0.189   0.197   0.191   0.191   0.193   0.191   0.190   0.183   0.185   0.182   0.185   0.190   0.194   0.185   0.182   0.186   0.191   0.186   0.185   0.190   0.193   0.189   0.191   0.191   0.190   0.182   0.181   0.187   0.186   0.187   0.184   0.179   0.183   0.179   0.178   0.179   0.177   0.180   0.180   0.184   0.186   0.186   0.189   0.188   0.192   0.193   0.197   0.192   0.185   0.182   0.181   0.188   0.194   0.189   0.184   0.180   0.192   0.191   0.193   0.190   0.194   0.185   0.184   0.187   0.187   0.184   0.189   0.190   0.188   0.195   0.184   0.186   0.191   0.194   0.194   0.198   0.199   0.203   0.206   0.193   0.199   0.192   0.183   0.180   0.180   0.182   0.190   0.182   0.183   0.188   0.187   0.184   0.177   0.182   0.186   0.185   0.187   0.189   0.192   0.192   0.191   0.188   0.191   0.193   0.188   0.187   0.193   0.187   0.187   0.195   0.195   0.192   0.191   0.190   0.197   0.197   0.204   0.195   0.193   0.193   0.192   0.193   0.198   0.195   0.196   0.195   0.194   0.186   0.187   0.189   0.194   0.205   0.201   0.197   0.194   0.189   0.188   0.183   0.182   0.186   0.185   0.187   0.192   0.191   0.189   0.188   0.191   0.187   0.198   0.201   0.193   0.195   0.197   0.197   0.189   0.183   0.191   0.186   0.189   0.186   0.185   0.179   0.187   0.187   0.187   0.188   0.183   0.189   0.189   0.192   0.188   0.192   0.190   0.187   0.185   0.193   0.191   0.193   0.192   0.192   0.190   0.187   0.185   0.184   0.185   0.192
    10.30    0.188   0.191   0.186   0.192   0.191   0.193   0.185   0.190   0.187   0.189   0.188   0.193   0.197   0.195   0.189   0.187   0.183   0.182   0.185   0.188   0.187   0.180   0.182   0.190   0.187   0.186   0.188   0.189   0.189   0.186   0.185   0.185   0.180   0.186   0.184   0.181   0.184   0.180   0.179   0.180   0.179   0.181   0.182   0.182   0.182   0.182   0.187   0.189   0.192   0.195   0.193   0.188   0.190   0.197   0.191   0.185   0.186   0.182   0.191   0.198   0.194   0.194   0.192   0.190   0.193   0.192   0.187   0.187   0.186   0.185   0.184   0.186   0.185   0.183   0.189   0.185   0.193   0.192   0.188   0.193   0.195   0.196   0.197   0.189   0.191   0.194   0.192   0.194   0.191   0.186   0.185   0.189   0.191   0.193   0.189   0.187   0.187   0.189   0.182   0.187   0.179   0.187   0.191   0.192   0.187   0.189   0.193   0.188   0.187   0.188   0.193   0.183   0.186   0.191   0.190   0.191   0.190   0.195   0.194   0.192   0.199   0.194   0.197   0.195   0.193   0.196   0.197   0.191   0.192   0.203   0.201   0.191   0.196   0.194   0.186   0.187   0.191   0.188   0.194   0.199   0.201   0.197   0.186   0.186   0.185   0.184   0.177   0.180   0.181   0.187   0.187   0.185   0.183   0.190   0.193   0.191   0.193   0.187   0.187   0.194   0.195   0.191   0.193   0.185   0.187   0.185   0.195   0.184   0.190   0.185   0.184   0.190   0.184   0.196   0.194   0.194   0.193   0.194   0.188   0.198   0.190   0.194   0.191   0.190   0.189   0.189   0.192   0.184   0.185   0.190   0.185   0.188   0.178
     1.00    0.190   0.190   0.184   0.189   0.187   0.188   0.188   0.187   0.187   0.190   0.194   0.191   0.188   0.194   0.194   0.184   0.188   0.188   0.190   0.186   0.183   0.186   0.190   0.188   0.187   0.187   0.189   0.185   0.184   0.186   0.188   0.192   0.184   0.182   0.184   0.183   0.182   0.178   0.174   0.184   0.183   0.177   0.179   0.177   0.184   0.193   0.190   0.185   0.192   0.196   0.192   0.192   0.194   0.194   0.194   0.196   0.193   0.193   0.190   0.192   0.194   0.191   0.193   0.188   0.194   0.192   0.192   0.192   0.186   0.188   0.181   0.181   0.192   0.189   0.184   0.186   0.194   0.197   0.184   0.190   0.193   0.192   0.196   0.200   0.192   0.193   0.197   0.196   0.192   0.189   0.189   0.185   0.191   0.189   0.184   0.184   0.191   0.184   0.190   0.186   0.184   0.185   0.184   0.188   0.193   0.192   0.195   0.186   0.190   0.194   0.193   0.194   0.189   0.193   0.190   0.193   0.190   0.194   0.193   0.192   0.197   0.194   0.198   0.194   0.195   0.199   0.194   0.199   0.205   0.200   0.194   0.193   0.193   0.198   0.189   0.193   0.198   0.192   0.186   0.188   0.193   0.192   0.187   0.185   0.187   0.181   0.179   0.181   0.185   0.190   0.189   0.184   0.190   0.194   0.193   0.194   0.196   0.196   0.184   0.187   0.183   0.188   0.193   0.187   0.189   0.185   0.187   0.193   0.194   0.187   0.188   0.194   0.192   0.197   0.195   0.196   0.190   0.193   0.192   0.194   0.190   0.190   0.188   0.186   0.189   0.189   0.192   0.188   0.186   0.187   0.187   0.186   0.187

   Mean standard deviation across all grid points:
      u component:    0.371 m/s
      v component:    0.313 m/s
      w component:    0.190 m/s


U-component (X) statistics from the interpolated hub point:

   Mean =   9.7063 m/s
   TI   =   4.2314 %


Processing complete.  2.12895E+05 CPU seconds used.
