
This summary file was generated by TurbSim (from OpenFAST-v3.5.3) on 20-Apr-2025 at 08:27:18.


Runtime Options:

**********  Random seed #1
    RANLUX  Type of random number generator
         F  Output binary HH turbulence parameters?
         F  Output formatted turbulence parameters?
         F  Output AeroDyn HH files?
         T  Output AeroDyn FF files?
         F  Output BLADED FF files?
         F  Output tower data?
         F  Output HAWC FF files?
         F  Output formatted FF files?
         T  Output coherent turbulence time step file?
 0 -  NONE  IEC turbulence models scaled to exact specified standard deviation


Turbine/Model Specifications:

        37  Vertical grid-point matrix dimension
        35  Horizontal grid-point matrix dimension
     0.250  Time step [seconds]
   900.000  Analysis time [seconds]
   900.000  Usable output time [seconds]
    89.350  Hub height [m]
   167.400  Grid height [m]
   158.100  Grid width [m]
     0.000  Vertical flow angle [degrees]
     0.000  Horizontal flow angle [degrees]


Meteorological Boundary Conditions:

    TIMESR  User-input time series spectral model
       N/A  IEC standard
       N/A  IEC turbulence characteristic
       N/A  IEC turbulence type
       N/A  IEC Extreme Turbulence Model (ETM) "c" parameter [m/s]
       PL   Wind profile type
    90.000  Reference height [m]
    10.000  Reference wind speed [m/s]
       N/A  Jet height [m]
     0.120  Power law exponent
     0.030  Surface roughness length [m]


Non-IEC Meteorological Boundary Conditions:

    45.000  Site latitude [degrees]
     0.050  Gradient Richardson number
     0.480  Friction or shear velocity [m/s]
       N/A  Mixing layer depth [m]
       N/A  Mean hub u'w' Reynolds stress
       N/A  Mean hub u'v' Reynolds stress
       N/A  Mean hub v'w' Reynolds stress


Spatial Coherence Models:

       IEC  u-component coherence model
       IEC  v-component coherence model
       IEC  w-component coherence model
(   12.000, 0.353E-03)  u-component coherence parameters
(   12.000, 0.353E-03)  v-component coherence parameters
(   12.000, 0.353E-03)  w-component coherence parameters
       N/A  Coherence exponent


Coherent Turbulence Scaling Parameters:

.\EventData
            Name of the path containing the coherent turbulence data files
       dns  Type of coherent turbulence data files
     1.000  Disturbance scale (ratio of wave height to rotor diameter)
     0.500  Fractional location of tower centerline from right
     0.500  Fractional location of hub height from the bottom of the dataset
    30.000  Minimum start time for coherent structures [seconds]


Profiles from User-Defined Time-Series Input:

  Height   Wind Speed   Horizontal Angle   Vertical Angle
   (m)        (m/s)          (deg)              (deg)    
  ------   ----------   ----------------   --------------
   94.00      10.00          -0.63               -0.00


You have requested that the following file(s) be generated:

   /kfs3/scratch/agupta/Projects/RL_Incubator/FinalRuns_Veer/Seed4/./FFSim_Seed4/Cond00_v10.0_PL0.12_TI5.0/Case2_wdirp04/Seed_3/TurbSim/HighT11.bts (AeroDyn/TurbSim full-field wind file)


Turbulence Simulation Scaling Parameter Summary:

   Turbulence model used                            =  User-input time series
   Gradient Richardson number                       =    0.050
   Monin-Obukhov (M-O) z/L parameter                =    0.067
   Monin-Obukhov (M-O) length scale                 = 1340.250 m
   Mean wind speed at hub height                    =    9.991 m/s

   Wind profile type                                =  Power law
   Power law exponent                               =    0.120
   Mean shear across rotor disk                     =    0.019 (m/s)/m
   Assumed rotor diameter                           =  158.100 m
   Surface roughness length                         =    0.030 m

   Nyquist frequency of turbulent wind field        =    2.000 Hz

   Number of time steps in the FFT                  =     3600
   Number of time steps output                      =     3600
   Number of points simulated                       =     1296


Mean Flow Angles:

   Vertical   =   0.0 degrees
   Horizontal =   0.0 degrees

Mean Wind Speed Profile:

   Height    Wind Speed   Horizontal Angle  Vertical Angle  U-comp (X)   V-comp (Y)   W-comp (Z)
     (m)        (m/s)         (degrees)       (degrees)       (m/s)        (m/s)        (m/s)   
   ------    ----------   ----------------  --------------  ----------   ----------   ----------
    168.4       10.78            0.00            0.00         10.78         0.00         0.00
    163.7       10.74            0.00            0.00         10.74         0.00         0.00
    159.1       10.71            0.00            0.00         10.71         0.00         0.00
    154.4       10.67            0.00            0.00         10.67         0.00         0.00
    149.8       10.63            0.00            0.00         10.63         0.00         0.00
    145.1       10.59            0.00            0.00         10.59         0.00         0.00
    140.5       10.55            0.00            0.00         10.55         0.00         0.00
    135.8       10.51            0.00            0.00         10.51         0.00         0.00
    131.2       10.46            0.00            0.00         10.46         0.00         0.00
    126.5       10.42            0.00            0.00         10.42         0.00         0.00
    121.9       10.37            0.00            0.00         10.37         0.00         0.00
    117.2       10.32            0.00            0.00         10.32         0.00         0.00
    112.6       10.27            0.00            0.00         10.27         0.00         0.00
    107.9       10.22            0.00            0.00         10.22         0.00         0.00
    103.3       10.17            0.00            0.00         10.17         0.00         0.00
     98.6       10.11            0.00            0.00         10.11         0.00         0.00
     94.0       10.05            0.00            0.00         10.05         0.00         0.00
     89.3        9.99            0.00            0.00          9.99         0.00         0.00
     84.7        9.93            0.00            0.00          9.93         0.00         0.00
     80.0        9.86            0.00            0.00          9.86         0.00         0.00
     75.4        9.79            0.00            0.00          9.79         0.00         0.00
     70.7        9.72            0.00            0.00          9.72         0.00         0.00
     66.1        9.64            0.00            0.00          9.64         0.00         0.00
     61.4        9.55            0.00            0.00          9.55         0.00         0.00
     56.8        9.46            0.00            0.00          9.46         0.00         0.00
     52.1        9.37            0.00            0.00          9.37         0.00         0.00
     47.5        9.26            0.00            0.00          9.26         0.00         0.00
     42.8        9.15            0.00            0.00          9.15         0.00         0.00
     38.2        9.02            0.00            0.00          9.02         0.00         0.00
     33.5        8.88            0.00            0.00          8.88         0.00         0.00
     28.9        8.73            0.00            0.00          8.73         0.00         0.00
     24.2        8.54            0.00            0.00          8.54         0.00         0.00
     19.6        8.33            0.00            0.00          8.33         0.00         0.00
     14.9        8.06            0.00            0.00          8.06         0.00         0.00
     10.3        7.71            0.00            0.00          7.71         0.00         0.00
      5.6        7.17            0.00            0.00          7.17         0.00         0.00
      1.0        5.83            0.00            0.00          5.83         0.00         0.00


Harvested Random Seeds after Generation of the Random Numbers:

     65026800 K 1
            0 K 2


Hub-Height Simulated Turbulence Statistical Summary:

   Type of Wind        Min (m/s)   Mean (m/s)    Max (m/s)  Sigma (m/s)       TI (%)
   ----------------    ---------   ----------    ---------  -----------       ------
   Longitudinal (u)         8.62         9.99        11.48        0.465        4.655
   Lateral (v)             -1.13        -0.00         1.47        0.367        3.671
   Vertical (w)            -0.86        -0.00         0.92        0.243        2.435
   U component              8.62         9.99        11.48        0.465        4.655
   V component             -1.13        -0.00         1.47        0.367        3.671
   W component             -0.86        -0.00         0.92        0.243        2.435
   Horizontal (U&V)         8.62        10.00        11.48        0.466        4.657
   Total                    8.63        10.00        11.48        0.466        4.659

                       Min Reynolds     Mean Reynolds    Max Reynolds    Correlation
   Product             Stress (m/s)^2   Stress (m/s)^2   Stress (m/s)^2  Coefficient
   ----------------    --------------   --------------   --------------  -----------
   u'w'                     -0.812            -0.001             0.761        -0.010
   u'v'                     -0.947            -0.006             0.691        -0.035
   v'w'                     -0.638             0.005             0.499         0.058


   Friction Velocity (Ustar)  =      0.033 m/s
   Maximum Instantaneous TKE  =      1.163 (m/s)^2
   Maximum Instantaneous CTKE =      0.538 (m/s)^2


Grid Point Variance Summary:

   Y-coord  -79.05  -74.40  -69.75  -65.10  -60.45  -55.80  -51.15  -46.50  -41.85  -37.20  -32.55  -27.90  -23.25  -18.60  -13.95   -9.30   -4.65    0.00    4.65    9.30   13.95   18.60   23.25   27.90   32.55   37.20   41.85   46.50   51.15   55.80   60.45   65.10   69.75   74.40   79.05

   Height   Standard deviation at grid points for the u component:
   168.40    0.499   0.494   0.476   0.535   0.558   0.531   0.541   0.493   0.474   0.456   0.471   0.498   0.506   0.485   0.521   0.509   0.573   0.563   0.529   0.546   0.542   0.558   0.595   0.596   0.545   0.526   0.544   0.562   0.600   0.547   0.539   0.516   0.550   0.539   0.511
   163.75    0.475   0.537   0.537   0.563   0.531   0.567   0.509   0.487   0.521   0.516   0.507   0.522   0.529   0.532   0.505   0.524   0.572   0.571   0.525   0.553   0.620   0.602   0.612   0.574   0.608   0.558   0.542   0.573   0.614   0.578   0.549   0.501   0.528   0.505   0.480
   159.10    0.524   0.507   0.551   0.559   0.545   0.586   0.541   0.516   0.519   0.509   0.522   0.502   0.586   0.554   0.612   0.549   0.565   0.524   0.533   0.586   0.605   0.624   0.637   0.653   0.555   0.538   0.557   0.533   0.575   0.553   0.559   0.556   0.507   0.512   0.495
   154.45    0.523   0.556   0.553   0.602   0.607   0.615   0.589   0.575   0.506   0.493   0.519   0.529   0.594   0.559   0.601   0.580   0.548   0.537   0.508   0.541   0.590   0.613   0.663   0.604   0.539   0.486   0.495   0.527   0.513   0.538   0.576   0.587   0.528   0.550   0.504
   149.80    0.570   0.599   0.547   0.588   0.591   0.578   0.565   0.519   0.497   0.500   0.509   0.502   0.563   0.590   0.591   0.586   0.580   0.554   0.516   0.509   0.534   0.569   0.601   0.606   0.568   0.473   0.473   0.477   0.496   0.509   0.536   0.559   0.516   0.504   0.516
   145.15    0.606   0.591   0.578   0.616   0.626   0.635   0.600   0.582   0.578   0.542   0.503   0.499   0.548   0.571   0.553   0.563   0.504   0.529   0.497   0.484   0.567   0.575   0.579   0.567   0.550   0.473   0.461   0.435   0.438   0.503   0.524   0.545   0.504   0.485   0.510
   140.50    0.604   0.632   0.640   0.596   0.597   0.598   0.620   0.624   0.616   0.543   0.477   0.473   0.474   0.518   0.489   0.524   0.510   0.548   0.510   0.524   0.579   0.577   0.581   0.537   0.528   0.480   0.483   0.452   0.447   0.484   0.477   0.480   0.491   0.465   0.459
   135.85    0.613   0.605   0.612   0.580   0.566   0.546   0.592   0.575   0.590   0.553   0.523   0.508   0.485   0.478   0.518   0.497   0.516   0.554   0.536   0.513   0.537   0.587   0.598   0.528   0.521   0.471   0.471   0.468   0.461   0.466   0.476   0.469   0.446   0.447   0.469
   131.20    0.570   0.568   0.558   0.499   0.528   0.564   0.602   0.582   0.581   0.556   0.497   0.493   0.473   0.490   0.499   0.533   0.546   0.503   0.520   0.514   0.504   0.544   0.585   0.538   0.523   0.498   0.463   0.464   0.448   0.427   0.443   0.439   0.424   0.422   0.472
   126.55    0.513   0.517   0.522   0.488   0.524   0.558   0.593   0.588   0.609   0.544   0.501   0.482   0.509   0.506   0.484   0.484   0.487   0.478   0.520   0.547   0.546   0.548   0.584   0.581   0.501   0.526   0.459   0.442   0.457   0.464   0.435   0.443   0.403   0.436   0.483
   121.90    0.527   0.510   0.551   0.489   0.525   0.532   0.533   0.571   0.596   0.518   0.511   0.502   0.506   0.534   0.517   0.498   0.465   0.455   0.497   0.514   0.548   0.542   0.564   0.555   0.528   0.506   0.467   0.453   0.458   0.443   0.430   0.442   0.441   0.443   0.454
   117.25    0.555   0.571   0.548   0.491   0.487   0.500   0.506   0.521   0.547   0.499   0.527   0.492   0.563   0.511   0.544   0.527   0.453   0.479   0.528   0.542   0.561   0.524   0.518   0.512   0.541   0.512   0.469   0.493   0.498   0.446   0.449   0.462   0.452   0.428   0.419
   112.60    0.521   0.532   0.495   0.487   0.486   0.478   0.471   0.514   0.532   0.529   0.534   0.513   0.556   0.559   0.523   0.513   0.474   0.474   0.498   0.555   0.557   0.518   0.505   0.496   0.502   0.501   0.508   0.472   0.494   0.497   0.481   0.466   0.450   0.421   0.416
   107.95    0.498   0.485   0.496   0.493   0.487   0.506   0.491   0.484   0.502   0.514   0.507   0.493   0.526   0.513   0.557   0.502   0.533   0.529   0.529   0.530   0.549   0.535   0.500   0.542   0.536   0.523   0.526   0.525   0.511   0.499   0.520   0.465   0.461   0.407   0.397
   103.30    0.471   0.498   0.458   0.495   0.477   0.460   0.467   0.450   0.469   0.476   0.473   0.518   0.520   0.538   0.505   0.507   0.509   0.492   0.524   0.522   0.539   0.489   0.505   0.480   0.506   0.496   0.495   0.495   0.513   0.515   0.461   0.490   0.455   0.406   0.428
    98.65    0.531   0.503   0.516   0.480   0.492   0.440   0.472   0.436   0.460   0.469   0.464   0.498   0.512   0.518   0.493   0.476   0.493   0.470   0.525   0.540   0.542   0.519   0.521   0.490   0.462   0.490   0.515   0.485   0.509   0.484   0.453   0.477   0.499   0.429   0.438
    94.00    0.542   0.550   0.569   0.511   0.459   0.455   0.478   0.461   0.468   0.465   0.485   0.527   0.518   0.492   0.470   0.481   0.463   0.489   0.474   0.509   0.536   0.523   0.502   0.494   0.482   0.477   0.479   0.508   0.533   0.510   0.468   0.441   0.482   0.465   0.503
    89.35    0.549   0.580   0.567   0.534   0.492   0.466   0.481   0.439   0.437   0.470   0.481   0.508   0.499   0.475   0.450   0.463   0.473   0.465   0.439   0.454   0.503   0.520   0.489   0.445   0.458   0.473   0.505   0.503   0.526   0.552   0.500   0.463   0.479   0.498   0.512
    84.70    0.533   0.563   0.537   0.510   0.493   0.489   0.480   0.479   0.490   0.492   0.458   0.463   0.458   0.449   0.466   0.458   0.475   0.437   0.430   0.437   0.471   0.500   0.461   0.449   0.456   0.428   0.449   0.518   0.510   0.554   0.518   0.490   0.488   0.491   0.485
    80.05    0.542   0.579   0.528   0.515   0.495   0.500   0.465   0.498   0.516   0.479   0.460   0.470   0.453   0.461   0.447   0.426   0.448   0.443   0.407   0.428   0.456   0.458   0.457   0.420   0.422   0.435   0.475   0.527   0.550   0.575   0.531   0.498   0.491   0.502   0.475
    75.40    0.554   0.547   0.565   0.514   0.523   0.485   0.463   0.498   0.516   0.465   0.459   0.449   0.436   0.450   0.466   0.421   0.450   0.438   0.437   0.427   0.447   0.434   0.417   0.395   0.408   0.479   0.517   0.531   0.528   0.512   0.520   0.533   0.499   0.467   0.487
    70.75    0.538   0.527   0.533   0.561   0.525   0.480   0.465   0.454   0.486   0.438   0.419   0.406   0.434   0.432   0.450   0.438   0.432   0.452   0.447   0.468   0.455   0.478   0.498   0.432   0.453   0.441   0.470   0.494   0.510   0.513   0.529   0.499   0.497   0.470   0.473
    66.10    0.526   0.557   0.574   0.552   0.567   0.522   0.451   0.476   0.482   0.445   0.395   0.425   0.426   0.464   0.491   0.440   0.438   0.420   0.422   0.449   0.502   0.505   0.501   0.465   0.419   0.438   0.418   0.430   0.485   0.458   0.465   0.492   0.520   0.491   0.488
    61.45    0.550   0.517   0.543   0.519   0.543   0.490   0.461   0.474   0.457   0.415   0.395   0.390   0.392   0.445   0.487   0.467   0.426   0.489   0.463   0.503   0.481   0.510   0.495   0.502   0.462   0.440   0.445   0.434   0.433   0.475   0.499   0.503   0.554   0.527   0.480
    56.80    0.533   0.486   0.524   0.546   0.526   0.533   0.479   0.445   0.466   0.420   0.407   0.413   0.409   0.389   0.451   0.441   0.448   0.453   0.484   0.470   0.461   0.481   0.476   0.497   0.469   0.463   0.465   0.436   0.442   0.438   0.459   0.519   0.550   0.515   0.472
    52.15    0.493   0.482   0.492   0.498   0.506   0.482   0.500   0.515   0.460   0.471   0.441   0.459   0.428   0.428   0.416   0.434   0.452   0.425   0.470   0.467   0.455   0.475   0.454   0.442   0.435   0.441   0.432   0.419   0.438   0.423   0.458   0.491   0.487   0.517   0.475
    47.50    0.449   0.431   0.432   0.462   0.448   0.454   0.532   0.540   0.551   0.479   0.461   0.444   0.439   0.441   0.431   0.420   0.434   0.445   0.480   0.444   0.456   0.453   0.419   0.428   0.421   0.419   0.403   0.397   0.409   0.423   0.456   0.449   0.464   0.480   0.490
    42.85    0.498   0.463   0.453   0.449   0.446   0.464   0.538   0.544   0.530   0.538   0.493   0.436   0.394   0.382   0.418   0.442   0.436   0.455   0.466   0.449   0.464   0.447   0.422   0.429   0.404   0.387   0.359   0.389   0.410   0.414   0.427   0.415   0.442   0.475   0.463
    38.20    0.489   0.476   0.459   0.452   0.490   0.507   0.559   0.564   0.536   0.515   0.506   0.474   0.405   0.390   0.403   0.425   0.440   0.422   0.482   0.438   0.461   0.427   0.432   0.447   0.417   0.378   0.393   0.390   0.386   0.399   0.439   0.429   0.466   0.464   0.449
    33.55    0.482   0.486   0.484   0.488   0.514   0.542   0.552   0.549   0.501   0.509   0.471   0.438   0.445   0.444   0.448   0.424   0.444   0.462   0.494   0.458   0.436   0.426   0.425   0.424   0.412   0.424   0.427   0.385   0.430   0.442   0.445   0.441   0.482   0.441   0.478
    28.90    0.511   0.472   0.466   0.524   0.513   0.526   0.539   0.517   0.540   0.509   0.474   0.487   0.512   0.483   0.475   0.446   0.475   0.489   0.511   0.489   0.449   0.416   0.404   0.398   0.422   0.438   0.437   0.431   0.467   0.463   0.471   0.476   0.453   0.466   0.503
    24.25    0.530   0.489   0.507   0.520   0.585   0.523   0.506   0.541   0.522   0.523   0.498   0.542   0.499   0.508   0.513   0.474   0.461   0.464   0.464   0.488   0.466   0.424   0.415   0.419   0.444   0.477   0.463   0.486   0.494   0.486   0.516   0.491   0.464   0.497   0.506
    19.60    0.510   0.499   0.524   0.540   0.564   0.526   0.553   0.535   0.543   0.548   0.526   0.518   0.506   0.530   0.506   0.479   0.509   0.519   0.490   0.481   0.488   0.458   0.438   0.425   0.447   0.491   0.506   0.514   0.512   0.472   0.488   0.498   0.494   0.485   0.495
    14.95    0.547   0.544   0.546   0.528   0.575   0.580   0.570   0.552   0.518   0.494   0.500   0.505   0.532   0.495   0.459   0.477   0.471   0.495   0.503   0.489   0.500   0.479   0.447   0.420   0.463   0.486   0.496   0.511   0.522   0.491   0.504   0.488   0.477   0.470   0.471
    10.30    0.515   0.518   0.517   0.572   0.618   0.650   0.630   0.593   0.520   0.487   0.506   0.506   0.494   0.486   0.467   0.435   0.464   0.502   0.482   0.478   0.447   0.455   0.430   0.429   0.444   0.487   0.480   0.533   0.522   0.531   0.507   0.462   0.458   0.455   0.475
     5.65    0.526   0.489   0.489   0.560   0.600   0.606   0.618   0.548   0.510   0.469   0.480   0.479   0.446   0.439   0.422   0.452   0.444   0.476   0.473   0.454   0.423   0.439   0.430   0.450   0.461   0.461   0.497   0.532   0.510   0.501   0.504   0.475   0.471   0.469   0.485
     1.00    0.508   0.507   0.509   0.538   0.565   0.562   0.595   0.553   0.533   0.470   0.458   0.459   0.433   0.448   0.401   0.419   0.446   0.482   0.453   0.430   0.431   0.432   0.411   0.408   0.438   0.438   0.470   0.483   0.470   0.487   0.496   0.483   0.481   0.456   0.446

   Height   Standard deviation at grid points for the v component:
   168.40    0.305   0.323   0.313   0.320   0.321   0.342   0.342   0.325   0.329   0.340   0.325   0.318   0.338   0.350   0.350   0.347   0.343   0.337   0.360   0.361   0.348   0.339   0.341   0.337   0.336   0.330   0.329   0.342   0.335   0.346   0.345   0.355   0.353   0.358   0.368
   163.75    0.308   0.305   0.313   0.314   0.322   0.335   0.340   0.320   0.321   0.324   0.335   0.331   0.337   0.342   0.338   0.353   0.341   0.333   0.350   0.354   0.353   0.345   0.337   0.328   0.329   0.336   0.334   0.355   0.350   0.346   0.337   0.342   0.346   0.348   0.360
   159.10    0.321   0.316   0.328   0.337   0.327   0.331   0.331   0.325   0.327   0.329   0.336   0.333   0.320   0.333   0.346   0.346   0.358   0.353   0.344   0.345   0.350   0.346   0.345   0.341   0.338   0.331   0.352   0.363   0.348   0.342   0.331   0.330   0.332   0.343   0.335
   154.45    0.320   0.329   0.355   0.346   0.333   0.321   0.345   0.351   0.332   0.326   0.312   0.320   0.331   0.339   0.345   0.345   0.354   0.354   0.362   0.336   0.344   0.353   0.353   0.350   0.332   0.338   0.360   0.365   0.354   0.344   0.323   0.336   0.332   0.334   0.332
   149.80    0.338   0.335   0.344   0.359   0.347   0.363   0.343   0.352   0.346   0.324   0.312   0.326   0.326   0.333   0.343   0.338   0.349   0.365   0.357   0.348   0.363   0.342   0.344   0.346   0.341   0.343   0.339   0.344   0.337   0.342   0.348   0.327   0.326   0.337   0.340
   145.15    0.332   0.331   0.345   0.340   0.358   0.353   0.343   0.336   0.352   0.342   0.332   0.331   0.328   0.333   0.333   0.343   0.358   0.365   0.351   0.342   0.352   0.344   0.333   0.342   0.330   0.322   0.332   0.336   0.344   0.342   0.338   0.324   0.314   0.333   0.329
   140.50    0.355   0.340   0.361   0.380   0.359   0.354   0.354   0.337   0.354   0.358   0.347   0.339   0.342   0.348   0.335   0.343   0.355   0.355   0.332   0.349   0.348   0.317   0.326   0.331   0.317   0.323   0.341   0.348   0.345   0.335   0.338   0.331   0.307   0.324   0.309
   135.85    0.363   0.376   0.377   0.367   0.360   0.358   0.354   0.335   0.347   0.346   0.348   0.352   0.345   0.351   0.346   0.343   0.356   0.339   0.333   0.344   0.332   0.328   0.322   0.312   0.325   0.331   0.335   0.320   0.321   0.327   0.325   0.318   0.329   0.314   0.300
   131.20    0.351   0.375   0.362   0.378   0.367   0.347   0.363   0.357   0.338   0.340   0.355   0.355   0.372   0.354   0.348   0.346   0.343   0.325   0.335   0.342   0.350   0.337   0.322   0.319   0.310   0.316   0.317   0.319   0.318   0.310   0.308   0.315   0.313   0.298   0.313
   126.55    0.359   0.368   0.365   0.368   0.354   0.333   0.342   0.350   0.333   0.349   0.342   0.348   0.359   0.350   0.342   0.340   0.329   0.338   0.340   0.342   0.342   0.339   0.329   0.327   0.327   0.323   0.326   0.332   0.337   0.327   0.312   0.306   0.314   0.318   0.333
   121.90    0.364   0.341   0.356   0.365   0.347   0.340   0.328   0.338   0.328   0.339   0.338   0.340   0.346   0.348   0.340   0.341   0.339   0.342   0.336   0.342   0.336   0.329   0.320   0.316   0.319   0.319   0.315   0.308   0.340   0.339   0.322   0.321   0.323   0.318   0.328
   117.25    0.357   0.366   0.375   0.357   0.334   0.337   0.320   0.337   0.338   0.330   0.336   0.327   0.337   0.352   0.337   0.331   0.334   0.328   0.328   0.334   0.323   0.318   0.324   0.331   0.317   0.318   0.327   0.316   0.330   0.336   0.333   0.325   0.326   0.322   0.309
   112.60    0.365   0.373   0.369   0.375   0.334   0.327   0.326   0.317   0.319   0.326   0.332   0.321   0.338   0.335   0.330   0.331   0.312   0.324   0.319   0.333   0.323   0.328   0.316   0.309   0.320   0.307   0.318   0.330   0.344   0.356   0.351   0.332   0.328   0.323   0.311
   107.95    0.374   0.372   0.360   0.363   0.343   0.346   0.324   0.320   0.317   0.327   0.318   0.334   0.346   0.337   0.336   0.323   0.308   0.328   0.342   0.315   0.317   0.315   0.304   0.315   0.319   0.322   0.311   0.326   0.343   0.351   0.338   0.334   0.334   0.339   0.327
   103.30    0.377   0.368   0.352   0.350   0.348   0.357   0.340   0.324   0.319   0.324   0.319   0.344   0.343   0.349   0.334   0.333   0.325   0.333   0.340   0.337   0.304   0.307   0.304   0.317   0.321   0.313   0.316   0.332   0.327   0.350   0.348   0.356   0.337   0.340   0.332
    98.65    0.388   0.390   0.368   0.364   0.348   0.352   0.334   0.320   0.317   0.324   0.336   0.343   0.348   0.375   0.369   0.352   0.346   0.335   0.339   0.336   0.329   0.309   0.309   0.301   0.313   0.319   0.311   0.330   0.343   0.342   0.341   0.348   0.335   0.341   0.333
    94.00    0.378   0.380   0.359   0.349   0.346   0.350   0.339   0.318   0.315   0.339   0.344   0.350   0.364   0.366   0.372   0.370   0.347   0.348   0.365   0.350   0.334   0.337   0.335   0.319   0.304   0.318   0.323   0.356   0.355   0.344   0.354   0.341   0.343   0.356   0.361
    89.35    0.359   0.368   0.366   0.337   0.343   0.336   0.342   0.324   0.326   0.329   0.337   0.340   0.357   0.367   0.368   0.363   0.357   0.367   0.356   0.355   0.355   0.349   0.347   0.341   0.310   0.326   0.345   0.364   0.348   0.336   0.350   0.345   0.355   0.365   0.344
    84.70    0.350   0.365   0.349   0.324   0.337   0.334   0.348   0.354   0.355   0.330   0.343   0.344   0.350   0.364   0.369   0.359   0.349   0.365   0.375   0.360   0.345   0.344   0.344   0.339   0.336   0.325   0.346   0.351   0.343   0.344   0.328   0.341   0.357   0.343   0.352
    80.05    0.376   0.357   0.342   0.330   0.325   0.328   0.341   0.338   0.357   0.351   0.339   0.353   0.367   0.383   0.384   0.380   0.363   0.364   0.370   0.355   0.340   0.345   0.344   0.345   0.326   0.327   0.327   0.348   0.339   0.340   0.338   0.360   0.349   0.370   0.358
    75.40    0.367   0.364   0.352   0.350   0.343   0.329   0.343   0.347   0.355   0.360   0.353   0.343   0.357   0.370   0.378   0.370   0.345   0.343   0.361   0.355   0.342   0.344   0.348   0.349   0.343   0.326   0.335   0.333   0.338   0.337   0.353   0.371   0.357   0.348   0.367
    70.75    0.367   0.364   0.340   0.341   0.338   0.340   0.333   0.335   0.350   0.356   0.353   0.348   0.352   0.365   0.362   0.352   0.344   0.338   0.348   0.345   0.348   0.334   0.338   0.342   0.345   0.328   0.332   0.339   0.352   0.346   0.354   0.362   0.350   0.351   0.362
    66.10    0.370   0.357   0.352   0.359   0.343   0.338   0.345   0.349   0.354   0.351   0.337   0.339   0.354   0.336   0.344   0.336   0.348   0.346   0.358   0.358   0.373   0.343   0.345   0.356   0.333   0.341   0.334   0.343   0.347   0.337   0.330   0.330   0.343   0.341   0.342
    61.45    0.370   0.362   0.367   0.361   0.337   0.330   0.335   0.341   0.354   0.352   0.340   0.352   0.359   0.335   0.354   0.350   0.355   0.349   0.364   0.371   0.361   0.370   0.363   0.355   0.349   0.343   0.335   0.348   0.353   0.331   0.323   0.333   0.340   0.338   0.347
    56.80    0.372   0.377   0.373   0.364   0.342   0.335   0.346   0.341   0.337   0.346   0.342   0.365   0.352   0.344   0.344   0.344   0.349   0.343   0.352   0.355   0.367   0.364   0.352   0.357   0.356   0.353   0.343   0.345   0.335   0.332   0.319   0.325   0.341   0.342   0.345
    52.15    0.372   0.360   0.364   0.357   0.366   0.341   0.331   0.330   0.335   0.342   0.360   0.336   0.352   0.336   0.340   0.343   0.331   0.348   0.346   0.353   0.359   0.357   0.343   0.352   0.356   0.355   0.344   0.335   0.322   0.316   0.324   0.340   0.344   0.352   0.342
    47.50    0.373   0.363   0.365   0.360   0.359   0.345   0.340   0.330   0.334   0.338   0.352   0.350   0.363   0.346   0.325   0.338   0.348   0.359   0.343   0.350   0.349   0.348   0.354   0.351   0.349   0.348   0.367   0.337   0.330   0.329   0.342   0.322   0.331   0.342   0.344
    42.85    0.375   0.384   0.378   0.384   0.360   0.359   0.344   0.348   0.363   0.348   0.359   0.359   0.361   0.360   0.338   0.338   0.354   0.349   0.354   0.364   0.356   0.341   0.349   0.340   0.345   0.340   0.353   0.355   0.344   0.351   0.346   0.331   0.324   0.334   0.336
    38.20    0.385   0.381   0.371   0.382   0.367   0.359   0.356   0.345   0.357   0.359   0.351   0.340   0.346   0.345   0.351   0.328   0.336   0.352   0.363   0.356   0.354   0.338   0.342   0.337   0.335   0.332   0.339   0.363   0.340   0.345   0.332   0.334   0.319   0.330   0.337
    33.55    0.374   0.370   0.384   0.378   0.362   0.358   0.363   0.349   0.357   0.353   0.352   0.344   0.351   0.349   0.341   0.342   0.358   0.349   0.359   0.358   0.345   0.339   0.338   0.335   0.328   0.324   0.361   0.359   0.327   0.315   0.331   0.322   0.330   0.328   0.341
    28.90    0.363   0.362   0.376   0.380   0.364   0.369   0.341   0.353   0.360   0.348   0.351   0.353   0.352   0.364   0.356   0.350   0.347   0.358   0.355   0.337   0.361   0.353   0.342   0.346   0.330   0.340   0.362   0.365   0.330   0.327   0.323   0.313   0.318   0.324   0.339
    24.25    0.343   0.357   0.364   0.361   0.368   0.381   0.367   0.365   0.363   0.355   0.351   0.351   0.357   0.359   0.343   0.368   0.372   0.361   0.347   0.345   0.355   0.347   0.356   0.354   0.344   0.360   0.351   0.347   0.344   0.328   0.321   0.301   0.317   0.330   0.340
    19.60    0.343   0.353   0.360   0.336   0.351   0.363   0.362   0.349   0.374   0.344   0.350   0.350   0.350   0.357   0.359   0.362   0.370   0.352   0.344   0.332   0.345   0.341   0.348   0.335   0.346   0.344   0.357   0.350   0.353   0.337   0.323   0.323   0.318   0.319   0.333
    14.95    0.346   0.359   0.343   0.346   0.355   0.368   0.362   0.357   0.359   0.341   0.348   0.361   0.357   0.348   0.347   0.368   0.377   0.361   0.344   0.335   0.340   0.318   0.323   0.313   0.314   0.338   0.330   0.348   0.340   0.331   0.329   0.320   0.321   0.319   0.334
    10.30    0.351   0.339   0.350   0.350   0.359   0.356   0.365   0.357   0.359   0.332   0.333   0.347   0.353   0.352   0.344   0.363   0.387   0.355   0.345   0.345   0.344   0.334   0.305   0.311   0.324   0.319   0.321   0.350   0.326   0.332   0.325   0.326   0.341   0.345   0.353
     5.65    0.352   0.362   0.349   0.341   0.346   0.365   0.363   0.341   0.342   0.335   0.348   0.341   0.353   0.342   0.343   0.348   0.368   0.378   0.366   0.359   0.337   0.342   0.324   0.328   0.329   0.341   0.333   0.334   0.327   0.330   0.325   0.341   0.342   0.366   0.370
     1.00    0.343   0.336   0.339   0.332   0.328   0.354   0.340   0.328   0.327   0.339   0.346   0.351   0.343   0.345   0.351   0.356   0.349   0.360   0.343   0.350   0.350   0.342   0.340   0.345   0.343   0.343   0.349   0.337   0.352   0.352   0.350   0.365   0.363   0.376   0.373

   Height   Standard deviation at grid points for the w component:
   168.40    0.263   0.271   0.264   0.257   0.258   0.266   0.265   0.252   0.250   0.256   0.253   0.259   0.240   0.241   0.252   0.256   0.258   0.272   0.274   0.266   0.255   0.253   0.253   0.241   0.241   0.253   0.252   0.246   0.250   0.243   0.245   0.246   0.253   0.251   0.245
   163.75    0.258   0.270   0.255   0.257   0.265   0.269   0.257   0.252   0.244   0.251   0.248   0.260   0.247   0.248   0.253   0.251   0.267   0.268   0.262   0.255   0.245   0.242   0.253   0.252   0.244   0.255   0.256   0.244   0.248   0.232   0.254   0.256   0.263   0.266   0.261
   159.10    0.265   0.256   0.253   0.263   0.270   0.269   0.262   0.262   0.252   0.247   0.255   0.260   0.251   0.259   0.253   0.250   0.255   0.256   0.260   0.259   0.253   0.244   0.247   0.246   0.257   0.254   0.255   0.249   0.247   0.236   0.253   0.266   0.266   0.268   0.262
   154.45    0.253   0.256   0.248   0.249   0.265   0.267   0.263   0.252   0.246   0.243   0.255   0.258   0.257   0.247   0.253   0.257   0.250   0.252   0.261   0.263   0.260   0.253   0.252   0.250   0.256   0.257   0.260   0.252   0.252   0.251   0.250   0.261   0.262   0.266   0.270
   149.80    0.260   0.252   0.256   0.249   0.251   0.255   0.249   0.251   0.256   0.257   0.258   0.256   0.256   0.258   0.262   0.256   0.252   0.252   0.247   0.264   0.264   0.255   0.261   0.263   0.248   0.244   0.254   0.258   0.248   0.258   0.256   0.263   0.261   0.270   0.266
   145.15    0.252   0.250   0.261   0.259   0.256   0.253   0.240   0.253   0.254   0.257   0.261   0.254   0.265   0.267   0.261   0.263   0.269   0.261   0.258   0.269   0.265   0.261   0.254   0.246   0.241   0.235   0.247   0.250   0.251   0.252   0.257   0.259   0.257   0.258   0.263
   140.50    0.257   0.252   0.255   0.253   0.247   0.247   0.253   0.259   0.268   0.264   0.263   0.256   0.259   0.268   0.271   0.270   0.279   0.268   0.266   0.263   0.261   0.263   0.263   0.258   0.241   0.255   0.243   0.245   0.248   0.249   0.256   0.258   0.262   0.259   0.253
   135.85    0.253   0.251   0.250   0.252   0.243   0.249   0.259   0.265   0.273   0.277   0.260   0.268   0.265   0.280   0.271   0.274   0.266   0.259   0.265   0.262   0.263   0.266   0.268   0.271   0.260   0.257   0.243   0.247   0.242   0.243   0.255   0.254   0.259   0.252   0.252
   131.20    0.252   0.265   0.261   0.269   0.266   0.257   0.260   0.271   0.269   0.267   0.263   0.263   0.269   0.271   0.260   0.265   0.252   0.256   0.257   0.252   0.260   0.258   0.265   0.266   0.266   0.252   0.241   0.244   0.245   0.253   0.257   0.254   0.250   0.258   0.255
   126.55    0.262   0.258   0.264   0.272   0.261   0.255   0.253   0.268   0.265   0.259   0.263   0.266   0.281   0.274   0.264   0.266   0.259   0.253   0.264   0.261   0.259   0.248   0.262   0.258   0.262   0.259   0.254   0.255   0.253   0.251   0.247   0.239   0.240   0.247   0.254
   121.90    0.258   0.267   0.261   0.264   0.274   0.259   0.274   0.268   0.271   0.269   0.270   0.272   0.270   0.272   0.256   0.268   0.277   0.272   0.260   0.269   0.258   0.262   0.269   0.265   0.261   0.262   0.263   0.256   0.257   0.249   0.249   0.243   0.242   0.252   0.258
   117.25    0.270   0.273   0.269   0.276   0.282   0.273   0.270   0.265   0.256   0.259   0.263   0.265   0.274   0.269   0.265   0.262   0.268   0.275   0.265   0.260   0.274   0.259   0.260   0.253   0.264   0.264   0.247   0.257   0.264   0.259   0.241   0.239   0.241   0.246   0.252
   112.60    0.274   0.279   0.290   0.278   0.287   0.268   0.266   0.266   0.260   0.260   0.260   0.272   0.274   0.264   0.259   0.266   0.264   0.263   0.264   0.272   0.264   0.267   0.259   0.260   0.259   0.258   0.246   0.255   0.259   0.257   0.246   0.242   0.247   0.246   0.253
   107.95    0.274   0.284   0.296   0.282   0.287   0.287   0.277   0.273   0.264   0.249   0.259   0.265   0.259   0.246   0.257   0.264   0.258   0.255   0.257   0.269   0.266   0.270   0.267   0.258   0.256   0.254   0.253   0.244   0.245   0.248   0.248   0.253   0.254   0.258   0.261
   103.30    0.273   0.273   0.274   0.285   0.274   0.287   0.277   0.288   0.275   0.252   0.256   0.256   0.254   0.262   0.254   0.263   0.255   0.261   0.252   0.262   0.261   0.257   0.253   0.259   0.248   0.245   0.249   0.242   0.242   0.245   0.247   0.254   0.261   0.266   0.258
    98.65    0.264   0.265   0.272   0.280   0.272   0.279   0.280   0.285   0.266   0.264   0.258   0.260   0.253   0.267   0.258   0.248   0.254   0.259   0.252   0.259   0.250   0.248   0.250   0.249   0.257   0.252   0.249   0.242   0.236   0.246   0.249   0.244   0.253   0.259   0.253
    94.00    0.269   0.257   0.269   0.259   0.265   0.273   0.276   0.279   0.275   0.278   0.265   0.253   0.256   0.262   0.262   0.260   0.251   0.250   0.265   0.260   0.254   0.257   0.248   0.256   0.266   0.262   0.247   0.242   0.241   0.243   0.241   0.242   0.245   0.241   0.241
    89.35    0.271   0.265   0.266   0.252   0.258   0.265   0.264   0.281   0.276   0.272   0.266   0.259   0.267   0.263   0.253   0.249   0.245   0.243   0.252   0.255   0.248   0.254   0.259   0.252   0.257   0.260   0.252   0.242   0.240   0.244   0.244   0.258   0.244   0.242   0.255
    84.70    0.274   0.268   0.262   0.265   0.269   0.265   0.272   0.276   0.274   0.284   0.281   0.271   0.261   0.265   0.255   0.248   0.255   0.241   0.250   0.255   0.255   0.256   0.255   0.260   0.258   0.274   0.248   0.243   0.243   0.244   0.241   0.255   0.252   0.252   0.250
    80.05    0.271   0.270   0.265   0.268   0.274   0.273   0.261   0.278   0.278   0.273   0.279   0.267   0.262   0.261   0.250   0.257   0.256   0.245   0.250   0.249   0.254   0.247   0.257   0.259   0.263   0.260   0.253   0.249   0.250   0.247   0.240   0.251   0.248   0.255   0.255
    75.40    0.272   0.262   0.264   0.281   0.273   0.280   0.262   0.275   0.265   0.252   0.262   0.259   0.264   0.265   0.267   0.272   0.266   0.255   0.250   0.244   0.253   0.256   0.261   0.262   0.253   0.245   0.244   0.247   0.241   0.251   0.251   0.238   0.252   0.258   0.250
    70.75    0.267   0.277   0.273   0.270   0.267   0.272   0.269   0.259   0.261   0.260   0.253   0.253   0.255   0.252   0.266   0.275   0.261   0.251   0.251   0.242   0.238   0.243   0.261   0.253   0.252   0.247   0.245   0.249   0.246   0.247   0.246   0.243   0.255   0.255   0.240
    66.10    0.266   0.273   0.267   0.280   0.274   0.272   0.264   0.266   0.257   0.260   0.244   0.245   0.250   0.253   0.260   0.257   0.252   0.257   0.244   0.243   0.243   0.253   0.262   0.261   0.258   0.248   0.253   0.244   0.245   0.245   0.245   0.240   0.250   0.257   0.242
    61.45    0.273   0.263   0.261   0.269   0.269   0.266   0.273   0.278   0.266   0.255   0.251   0.238   0.242   0.245   0.254   0.258   0.256   0.249   0.246   0.254   0.252   0.255   0.260   0.256   0.243   0.250   0.253   0.238   0.239   0.241   0.252   0.247   0.247   0.252   0.244
    56.80    0.264   0.264   0.263   0.266   0.264   0.264   0.268   0.271   0.264   0.257   0.253   0.242   0.239   0.243   0.239   0.248   0.244   0.247   0.257   0.251   0.252   0.260   0.255   0.247   0.242   0.248   0.241   0.247   0.253   0.257   0.253   0.249   0.238   0.245   0.244
    52.15    0.262   0.270   0.264   0.257   0.264   0.272   0.269   0.270   0.258   0.254   0.255   0.247   0.251   0.251   0.250   0.236   0.241   0.245   0.252   0.251   0.245   0.248   0.243   0.248   0.242   0.254   0.255   0.253   0.256   0.247   0.257   0.253   0.238   0.236   0.244
    47.50    0.263   0.258   0.259   0.251   0.245   0.255   0.260   0.257   0.257   0.244   0.250   0.243   0.243   0.257   0.246   0.241   0.242   0.245   0.241   0.246   0.240   0.245   0.240   0.237   0.244   0.246   0.250   0.255   0.255   0.254   0.247   0.245   0.234   0.247   0.243
    42.85    0.254   0.252   0.255   0.247   0.259   0.251   0.258   0.261   0.252   0.243   0.245   0.245   0.250   0.254   0.244   0.244   0.242   0.249   0.252   0.255   0.238   0.237   0.233   0.245   0.245   0.249   0.243   0.244   0.246   0.246   0.249   0.243   0.241   0.238   0.245
    38.20    0.256   0.249   0.249   0.248   0.250   0.252   0.255   0.259   0.256   0.251   0.245   0.246   0.246   0.249   0.241   0.245   0.249   0.246   0.252   0.249   0.241   0.235   0.240   0.244   0.248   0.260   0.241   0.240   0.239   0.243   0.248   0.240   0.243   0.245   0.248
    33.55    0.252   0.252   0.254   0.251   0.251   0.252   0.259   0.266   0.251   0.248   0.248   0.247   0.250   0.251   0.238   0.240   0.246   0.243   0.253   0.248   0.253   0.245   0.242   0.244   0.249   0.255   0.238   0.245   0.243   0.244   0.249   0.255   0.247   0.252   0.247
    28.90    0.257   0.252   0.257   0.255   0.248   0.251   0.252   0.252   0.257   0.259   0.251   0.257   0.261   0.252   0.249   0.237   0.245   0.239   0.255   0.250   0.252   0.260   0.250   0.257   0.252   0.259   0.260   0.248   0.254   0.254   0.259   0.252   0.252   0.255   0.255
    24.25    0.253   0.257   0.260   0.256   0.247   0.256   0.253   0.252   0.254   0.261   0.251   0.249   0.259   0.256   0.256   0.249   0.234   0.234   0.253   0.258   0.254   0.262   0.258   0.264   0.247   0.255   0.253   0.254   0.254   0.259   0.258   0.264   0.252   0.253   0.253
    19.60    0.247   0.248   0.250   0.251   0.257   0.254   0.265   0.266   0.255   0.254   0.249   0.248   0.248   0.250   0.254   0.249   0.241   0.248   0.244   0.263   0.264   0.254   0.256   0.249   0.250   0.254   0.262   0.259   0.258   0.263   0.262   0.262   0.254   0.253   0.255
    14.95    0.250   0.255   0.248   0.252   0.255   0.262   0.264   0.275   0.269   0.256   0.256   0.258   0.254   0.243   0.253   0.244   0.241   0.256   0.262   0.262   0.275   0.259   0.253   0.248   0.256   0.259   0.258   0.265   0.262   0.254   0.258   0.261   0.253   0.263   0.261
    10.30    0.258   0.251   0.252   0.254   0.262   0.264   0.261   0.271   0.268   0.253   0.260   0.250   0.248   0.241   0.243   0.238   0.250   0.260   0.267   0.258   0.259   0.261   0.256   0.247   0.244   0.255   0.252   0.254   0.259   0.251   0.242   0.251   0.256   0.254   0.268
     5.65    0.251   0.240   0.247   0.249   0.261   0.255   0.265   0.260   0.257   0.262   0.246   0.251   0.247   0.232   0.235   0.231   0.243   0.253   0.260   0.252   0.247   0.256   0.251   0.241   0.248   0.253   0.260   0.252   0.258   0.236   0.237   0.241   0.249   0.247   0.249
     1.00    0.248   0.249   0.249   0.259   0.270   0.257   0.259   0.255   0.250   0.251   0.252   0.247   0.243   0.239   0.232   0.242   0.239   0.245   0.259   0.253   0.251   0.255   0.247   0.254   0.253   0.256   0.247   0.253   0.244   0.241   0.234   0.243   0.248   0.248   0.250

   Mean standard deviation across all grid points:
      u component:    0.496 m/s
      v component:    0.343 m/s
      w component:    0.256 m/s


U-component (X) statistics from the interpolated hub point:

   Mean =   9.9913 m/s
   TI   =   4.6554 %


Processing complete.  6150.1 CPU seconds used.
