
This summary file was generated by TurbSim (from OpenFAST-v3.5.3) on 20-Apr-2025 at 05:33:33.


Runtime Options:

**********  Random seed #1
    RANLUX  Type of random number generator
         F  Output binary HH turbulence parameters?
         F  Output formatted turbulence parameters?
         F  Output AeroDyn HH files?
         T  Output AeroDyn FF files?
         F  Output BLADED FF files?
         F  Output tower data?
         F  Output HAWC FF files?
         F  Output formatted FF files?
         T  Output coherent turbulence time step file?
 0 -  NONE  IEC turbulence models scaled to exact specified standard deviation


Turbine/Model Specifications:

        37  Vertical grid-point matrix dimension
        35  Horizontal grid-point matrix dimension
     0.250  Time step [seconds]
   900.000  Analysis time [seconds]
   900.000  Usable output time [seconds]
    89.350  Hub height [m]
   167.400  Grid height [m]
   158.100  Grid width [m]
     0.000  Vertical flow angle [degrees]
     0.000  Horizontal flow angle [degrees]


Meteorological Boundary Conditions:

    TIMESR  User-input time series spectral model
       N/A  IEC standard
       N/A  IEC turbulence characteristic
       N/A  IEC turbulence type
       N/A  IEC Extreme Turbulence Model (ETM) "c" parameter [m/s]
       PL   Wind profile type
    90.000  Reference height [m]
    10.000  Reference wind speed [m/s]
       N/A  Jet height [m]
     0.120  Power law exponent
     0.030  Surface roughness length [m]


Non-IEC Meteorological Boundary Conditions:

    45.000  Site latitude [degrees]
     0.050  Gradient Richardson number
     0.480  Friction or shear velocity [m/s]
       N/A  Mixing layer depth [m]
       N/A  Mean hub u'w' Reynolds stress
       N/A  Mean hub u'v' Reynolds stress
       N/A  Mean hub v'w' Reynolds stress


Spatial Coherence Models:

       IEC  u-component coherence model
       IEC  v-component coherence model
       IEC  w-component coherence model
(   12.000, 0.353E-03)  u-component coherence parameters
(   12.000, 0.353E-03)  v-component coherence parameters
(   12.000, 0.353E-03)  w-component coherence parameters
       N/A  Coherence exponent


Coherent Turbulence Scaling Parameters:

.\EventData
            Name of the path containing the coherent turbulence data files
       dns  Type of coherent turbulence data files
     1.000  Disturbance scale (ratio of wave height to rotor diameter)
     0.500  Fractional location of tower centerline from right
     0.500  Fractional location of hub height from the bottom of the dataset
    30.000  Minimum start time for coherent structures [seconds]


Profiles from User-Defined Time-Series Input:

  Height   Wind Speed   Horizontal Angle   Vertical Angle
   (m)        (m/s)          (deg)              (deg)    
  ------   ----------   ----------------   --------------
   94.00      10.00          -0.63                0.00


You have requested that the following file(s) be generated:

   /kfs3/scratch/agupta/Projects/RL_Incubator/FinalRuns_Veer/Seed4/./FFSim_Seed4/Cond00_v10.0_PL0.12_TI2.5/Case1_wdirp02/Seed_3/TurbSim/HighT15.bts (AeroDyn/TurbSim full-field wind file)


Turbulence Simulation Scaling Parameter Summary:

   Turbulence model used                            =  User-input time series
   Gradient Richardson number                       =    0.050
   Monin-Obukhov (M-O) z/L parameter                =    0.067
   Monin-Obukhov (M-O) length scale                 = 1340.250 m
   Mean wind speed at hub height                    =    9.991 m/s

   Wind profile type                                =  Power law
   Power law exponent                               =    0.120
   Mean shear across rotor disk                     =    0.019 (m/s)/m
   Assumed rotor diameter                           =  158.100 m
   Surface roughness length                         =    0.030 m

   Nyquist frequency of turbulent wind field        =    2.000 Hz

   Number of time steps in the FFT                  =     3600
   Number of time steps output                      =     3600
   Number of points simulated                       =     1296


Mean Flow Angles:

   Vertical   =   0.0 degrees
   Horizontal =   0.0 degrees

Mean Wind Speed Profile:

   Height    Wind Speed   Horizontal Angle  Vertical Angle  U-comp (X)   V-comp (Y)   W-comp (Z)
     (m)        (m/s)         (degrees)       (degrees)       (m/s)        (m/s)        (m/s)   
   ------    ----------   ----------------  --------------  ----------   ----------   ----------
    168.4       10.78            0.00            0.00         10.78         0.00         0.00
    163.7       10.74            0.00            0.00         10.74         0.00         0.00
    159.1       10.71            0.00            0.00         10.71         0.00         0.00
    154.4       10.67            0.00            0.00         10.67         0.00         0.00
    149.8       10.63            0.00            0.00         10.63         0.00         0.00
    145.1       10.59            0.00            0.00         10.59         0.00         0.00
    140.5       10.55            0.00            0.00         10.55         0.00         0.00
    135.8       10.51            0.00            0.00         10.51         0.00         0.00
    131.2       10.46            0.00            0.00         10.46         0.00         0.00
    126.5       10.42            0.00            0.00         10.42         0.00         0.00
    121.9       10.37            0.00            0.00         10.37         0.00         0.00
    117.2       10.32            0.00            0.00         10.32         0.00         0.00
    112.6       10.27            0.00            0.00         10.27         0.00         0.00
    107.9       10.22            0.00            0.00         10.22         0.00         0.00
    103.3       10.17            0.00            0.00         10.17         0.00         0.00
     98.6       10.11            0.00            0.00         10.11         0.00         0.00
     94.0       10.05            0.00            0.00         10.05         0.00         0.00
     89.3        9.99            0.00            0.00          9.99         0.00         0.00
     84.7        9.93            0.00            0.00          9.93         0.00         0.00
     80.0        9.86            0.00            0.00          9.86         0.00         0.00
     75.4        9.79            0.00            0.00          9.79         0.00         0.00
     70.7        9.72            0.00            0.00          9.72         0.00         0.00
     66.1        9.64            0.00            0.00          9.64         0.00         0.00
     61.4        9.55            0.00            0.00          9.55         0.00         0.00
     56.8        9.46            0.00            0.00          9.46         0.00         0.00
     52.1        9.37            0.00            0.00          9.37         0.00         0.00
     47.5        9.26            0.00            0.00          9.26         0.00         0.00
     42.8        9.15            0.00            0.00          9.15         0.00         0.00
     38.2        9.02            0.00            0.00          9.02         0.00         0.00
     33.5        8.88            0.00            0.00          8.88         0.00         0.00
     28.9        8.73            0.00            0.00          8.73         0.00         0.00
     24.2        8.54            0.00            0.00          8.54         0.00         0.00
     19.6        8.33            0.00            0.00          8.33         0.00         0.00
     14.9        8.06            0.00            0.00          8.06         0.00         0.00
     10.3        7.71            0.00            0.00          7.71         0.00         0.00
      5.6        7.17            0.00            0.00          7.17         0.00         0.00
      1.0        5.83            0.00            0.00          5.83         0.00         0.00


Harvested Random Seeds after Generation of the Random Numbers:

     65026800 K 1
            0 K 2


Hub-Height Simulated Turbulence Statistical Summary:

   Type of Wind        Min (m/s)   Mean (m/s)    Max (m/s)  Sigma (m/s)       TI (%)
   ----------------    ---------   ----------    ---------  -----------       ------
   Longitudinal (u)         9.38         9.99        10.76        0.249        2.488
   Lateral (v)             -0.58        -0.00         0.69        0.215        2.153
   Vertical (w)            -0.40        -0.00         0.47        0.118        1.184
   U component              9.38         9.99        10.76        0.249        2.488
   V component             -0.58        -0.00         0.69        0.215        2.153
   W component             -0.40        -0.00         0.47        0.118        1.184
   Horizontal (U&V)         9.39         9.99        10.77        0.248        2.486
   Total                    9.39         9.99        10.77        0.248        2.485

                       Min Reynolds     Mean Reynolds    Max Reynolds    Correlation
   Product             Stress (m/s)^2   Stress (m/s)^2   Stress (m/s)^2  Coefficient
   ----------------    --------------   --------------   --------------  -----------
   u'w'                     -0.191            -0.004             0.179        -0.121
   u'v'                     -0.255            -0.008             0.281        -0.159
   v'w'                     -0.133             0.004             0.150         0.138


   Friction Velocity (Ustar)  =      0.060 m/s
   Maximum Instantaneous TKE  =      0.337 (m/s)^2
   Maximum Instantaneous CTKE =      0.169 (m/s)^2


Grid Point Variance Summary:

   Y-coord  -79.05  -74.40  -69.75  -65.10  -60.45  -55.80  -51.15  -46.50  -41.85  -37.20  -32.55  -27.90  -23.25  -18.60  -13.95   -9.30   -4.65    0.00    4.65    9.30   13.95   18.60   23.25   27.90   32.55   37.20   41.85   46.50   51.15   55.80   60.45   65.10   69.75   74.40   79.05

   Height   Standard deviation at grid points for the u component:
   168.40    0.237   0.239   0.231   0.267   0.265   0.288   0.306   0.306   0.297   0.287   0.300   0.288   0.277   0.273   0.266   0.237   0.261   0.279   0.260   0.251   0.251   0.259   0.278   0.291   0.253   0.253   0.280   0.270   0.261   0.247   0.258   0.255   0.262   0.262   0.289
   163.75    0.241   0.255   0.254   0.255   0.251   0.282   0.283   0.288   0.291   0.309   0.285   0.276   0.277   0.263   0.251   0.244   0.276   0.281   0.262   0.254   0.289   0.279   0.288   0.275   0.253   0.263   0.274   0.273   0.270   0.270   0.267   0.267   0.263   0.264   0.281
   159.10    0.249   0.228   0.234   0.239   0.254   0.273   0.269   0.270   0.291   0.309   0.280   0.267   0.305   0.284   0.275   0.268   0.265   0.276   0.277   0.275   0.292   0.279   0.296   0.290   0.260   0.263   0.283   0.270   0.262   0.257   0.261   0.269   0.243   0.261   0.260
   154.45    0.237   0.227   0.232   0.259   0.257   0.275   0.279   0.284   0.270   0.285   0.261   0.265   0.291   0.296   0.285   0.271   0.255   0.268   0.272   0.275   0.292   0.288   0.296   0.270   0.255   0.262   0.264   0.270   0.261   0.252   0.282   0.286   0.249   0.258   0.249
   149.80    0.239   0.245   0.220   0.240   0.257   0.249   0.271   0.266   0.247   0.262   0.257   0.247   0.269   0.287   0.297   0.284   0.280   0.271   0.267   0.250   0.273   0.285   0.284   0.272   0.264   0.252   0.244   0.259   0.242   0.276   0.293   0.286   0.268   0.269   0.255
   145.15    0.264   0.243   0.239   0.240   0.256   0.271   0.264   0.274   0.271   0.257   0.258   0.261   0.265   0.278   0.287   0.282   0.257   0.286   0.271   0.262   0.280   0.283   0.295   0.282   0.265   0.267   0.252   0.245   0.228   0.267   0.293   0.295   0.265   0.268   0.247
   140.50    0.283   0.267   0.277   0.259   0.261   0.253   0.264   0.274   0.262   0.245   0.225   0.227   0.227   0.249   0.268   0.263   0.263   0.275   0.304   0.295   0.304   0.299   0.302   0.272   0.243   0.262   0.246   0.231   0.229   0.272   0.273   0.283   0.270   0.260   0.246
   135.85    0.304   0.277   0.276   0.272   0.243   0.234   0.253   0.252   0.250   0.245   0.235   0.223   0.225   0.242   0.256   0.253   0.282   0.299   0.299   0.308   0.327   0.328   0.305   0.266   0.253   0.253   0.271   0.259   0.267   0.287   0.314   0.313   0.297   0.273   0.256
   131.20    0.291   0.265   0.270   0.235   0.236   0.244   0.245   0.245   0.252   0.237   0.234   0.225   0.229   0.246   0.258   0.268   0.291   0.272   0.292   0.305   0.297   0.321   0.327   0.294   0.273   0.295   0.276   0.286   0.262   0.284   0.297   0.288   0.281   0.253   0.271
   126.55    0.269   0.253   0.255   0.230   0.226   0.228   0.236   0.244   0.260   0.230   0.214   0.225   0.245   0.243   0.271   0.265   0.273   0.251   0.270   0.307   0.317   0.325   0.327   0.294   0.273   0.293   0.283   0.264   0.277   0.284   0.282   0.291   0.269   0.262   0.295
   121.90    0.271   0.266   0.275   0.239   0.238   0.235   0.231   0.240   0.245   0.219   0.215   0.227   0.234   0.270   0.284   0.269   0.275   0.245   0.268   0.296   0.297   0.311   0.309   0.282   0.289   0.282   0.289   0.287   0.287   0.280   0.280   0.307   0.311   0.283   0.285
   117.25    0.286   0.293   0.276   0.266   0.237   0.240   0.234   0.225   0.232   0.205   0.205   0.219   0.255   0.246   0.282   0.283   0.257   0.271   0.288   0.299   0.303   0.297   0.287   0.290   0.301   0.311   0.274   0.310   0.315   0.300   0.296   0.313   0.308   0.279   0.276
   112.60    0.284   0.275   0.272   0.273   0.255   0.230   0.238   0.229   0.227   0.221   0.231   0.229   0.250   0.266   0.269   0.270   0.262   0.289   0.300   0.326   0.281   0.263   0.287   0.287   0.299   0.295   0.286   0.303   0.303   0.307   0.308   0.311   0.292   0.271   0.280
   107.95    0.275   0.280   0.277   0.266   0.251   0.255   0.239   0.230   0.221   0.226   0.225   0.217   0.241   0.241   0.274   0.248   0.280   0.309   0.319   0.324   0.285   0.283   0.294   0.295   0.300   0.310   0.291   0.298   0.306   0.290   0.298   0.288   0.271   0.261   0.268
   103.30    0.258   0.264   0.241   0.264   0.246   0.237   0.222   0.224   0.212   0.215   0.218   0.229   0.217   0.243   0.231   0.240   0.278   0.296   0.319   0.311   0.292   0.286   0.273   0.288   0.296   0.298   0.301   0.291   0.286   0.300   0.274   0.295   0.271   0.257   0.289
    98.65    0.267   0.244   0.254   0.260   0.241   0.225   0.240   0.219   0.220   0.222   0.216   0.219   0.204   0.210   0.244   0.276   0.264   0.273   0.307   0.303   0.300   0.289   0.284   0.276   0.273   0.285   0.290   0.277   0.286   0.283   0.274   0.286   0.300   0.267   0.291
    94.00    0.269   0.272   0.274   0.269   0.249   0.225   0.245   0.234   0.216   0.227   0.225   0.229   0.206   0.214   0.232   0.259   0.254   0.275   0.274   0.292   0.296   0.318   0.294   0.270   0.275   0.276   0.284   0.295   0.294   0.279   0.281   0.253   0.290   0.295   0.291
    89.35    0.291   0.276   0.279   0.261   0.261   0.244   0.247   0.239   0.228   0.222   0.223   0.229   0.214   0.225   0.225   0.252   0.242   0.249   0.259   0.264   0.300   0.322   0.291   0.265   0.268   0.270   0.276   0.283   0.278   0.304   0.272   0.269   0.277   0.303   0.315
    84.70    0.288   0.270   0.261   0.257   0.238   0.250   0.257   0.249   0.235   0.219   0.217   0.215   0.205   0.218   0.238   0.236   0.227   0.228   0.247   0.266   0.281   0.306   0.286   0.269   0.265   0.264   0.281   0.293   0.266   0.302   0.287   0.274   0.298   0.304   0.317
    80.05    0.275   0.265   0.252   0.257   0.249   0.254   0.245   0.244   0.234   0.223   0.220   0.196   0.201   0.216   0.232   0.221   0.219   0.241   0.254   0.239   0.263   0.286   0.287   0.279   0.268   0.269   0.280   0.288   0.284   0.311   0.308   0.300   0.290   0.310   0.312
    75.40    0.270   0.253   0.271   0.259   0.259   0.264   0.252   0.242   0.246   0.221   0.218   0.207   0.189   0.206   0.228   0.204   0.225   0.245   0.268   0.259   0.251   0.269   0.284   0.253   0.256   0.286   0.283   0.293   0.281   0.286   0.305   0.307   0.313   0.306   0.296
    70.75    0.259   0.249   0.263   0.290   0.286   0.246   0.246   0.221   0.230   0.226   0.215   0.199   0.203   0.208   0.218   0.220   0.204   0.238   0.260   0.268   0.252   0.262   0.292   0.260   0.274   0.290   0.292   0.271   0.267   0.274   0.291   0.299   0.308   0.281   0.293
    66.10    0.251   0.268   0.283   0.281   0.291   0.274   0.251   0.240   0.224   0.210   0.203   0.205   0.218   0.222   0.233   0.215   0.223   0.223   0.259   0.276   0.291   0.286   0.296   0.273   0.268   0.288   0.276   0.262   0.266   0.270   0.263   0.289   0.298   0.289   0.285
    61.45    0.265   0.265   0.292   0.289   0.275   0.277   0.249   0.231   0.210   0.203   0.199   0.203   0.212   0.228   0.234   0.248   0.225   0.261   0.263   0.297   0.291   0.289   0.289   0.312   0.285   0.298   0.280   0.272   0.241   0.267   0.267   0.277   0.305   0.284   0.261
    56.80    0.286   0.269   0.294   0.310   0.284   0.274   0.227   0.211   0.225   0.206   0.210   0.215   0.212   0.221   0.243   0.253   0.247   0.238   0.264   0.284   0.288   0.320   0.299   0.320   0.302   0.298   0.299   0.293   0.283   0.249   0.242   0.279   0.304   0.274   0.252
    52.15    0.283   0.265   0.284   0.294   0.274   0.270   0.242   0.241   0.223   0.220   0.205   0.208   0.213   0.233   0.240   0.236   0.262   0.248   0.274   0.297   0.294   0.321   0.309   0.315   0.285   0.303   0.278   0.291   0.274   0.276   0.252   0.271   0.280   0.269   0.264
    47.50    0.271   0.252   0.270   0.282   0.264   0.262   0.277   0.259   0.258   0.218   0.203   0.213   0.217   0.227   0.227   0.225   0.250   0.257   0.290   0.278   0.284   0.294   0.296   0.285   0.284   0.279   0.267   0.269   0.254   0.251   0.259   0.274   0.257   0.268   0.285
    42.85    0.313   0.283   0.300   0.302   0.284   0.263   0.280   0.282   0.258   0.247   0.226   0.219   0.205   0.207   0.243   0.247   0.268   0.278   0.275   0.286   0.281   0.277   0.281   0.290   0.261   0.259   0.220   0.245   0.258   0.251   0.252   0.251   0.249   0.259   0.263
    38.20    0.311   0.296   0.301   0.294   0.309   0.304   0.300   0.284   0.286   0.271   0.252   0.243   0.229   0.226   0.235   0.257   0.278   0.266   0.294   0.267   0.291   0.275   0.274   0.281   0.262   0.234   0.233   0.252   0.265   0.248   0.252   0.230   0.248   0.255   0.238
    33.55    0.326   0.311   0.314   0.293   0.319   0.307   0.323   0.311   0.281   0.294   0.274   0.258   0.262   0.258   0.263   0.254   0.282   0.291   0.292   0.286   0.291   0.281   0.271   0.286   0.257   0.254   0.269   0.249   0.275   0.276   0.263   0.242   0.246   0.247   0.252
    28.90    0.325   0.288   0.290   0.301   0.308   0.312   0.327   0.327   0.299   0.300   0.273   0.269   0.282   0.292   0.254   0.253   0.279   0.283   0.305   0.300   0.271   0.281   0.291   0.297   0.288   0.282   0.302   0.278   0.290   0.280   0.268   0.260   0.229   0.231   0.236
    24.25    0.330   0.302   0.301   0.292   0.338   0.304   0.315   0.328   0.306   0.307   0.286   0.306   0.286   0.287   0.259   0.257   0.258   0.285   0.312   0.308   0.287   0.283   0.291   0.303   0.301   0.314   0.301   0.314   0.306   0.289   0.259   0.243   0.231   0.232   0.246
    19.60    0.322   0.294   0.309   0.332   0.323   0.312   0.321   0.308   0.323   0.319   0.321   0.307   0.289   0.278   0.270   0.259   0.272   0.289   0.302   0.295   0.299   0.316   0.321   0.311   0.318   0.327   0.314   0.313   0.317   0.282   0.245   0.248   0.239   0.240   0.265
    14.95    0.322   0.300   0.313   0.302   0.317   0.323   0.304   0.317   0.319   0.311   0.329   0.328   0.312   0.289   0.271   0.254   0.250   0.271   0.283   0.283   0.314   0.329   0.324   0.288   0.298   0.309   0.327   0.319   0.333   0.293   0.260   0.244   0.252   0.249   0.258
    10.30    0.325   0.300   0.298   0.288   0.316   0.319   0.323   0.318   0.316   0.297   0.329   0.314   0.289   0.278   0.273   0.251   0.265   0.268   0.282   0.288   0.314   0.322   0.298   0.308   0.296   0.309   0.319   0.323   0.308   0.302   0.257   0.247   0.247   0.264   0.279
     5.65    0.318   0.298   0.276   0.281   0.286   0.287   0.296   0.289   0.297   0.295   0.306   0.302   0.292   0.266   0.259   0.267   0.252   0.286   0.291   0.292   0.289   0.312   0.286   0.294   0.314   0.299   0.306   0.310   0.299   0.282   0.263   0.255   0.250   0.268   0.284
     1.00    0.290   0.302   0.274   0.271   0.264   0.285   0.288   0.278   0.286   0.281   0.294   0.307   0.285   0.277   0.251   0.251   0.243   0.268   0.271   0.255   0.281   0.302   0.268   0.281   0.305   0.298   0.297   0.281   0.261   0.265   0.259   0.263   0.259   0.267   0.256

   Height   Standard deviation at grid points for the v component:
   168.40    0.196   0.201   0.200   0.211   0.211   0.210   0.220   0.223   0.223   0.231   0.221   0.210   0.210   0.208   0.211   0.206   0.206   0.203   0.210   0.220   0.215   0.203   0.199   0.190   0.200   0.197   0.202   0.201   0.202   0.213   0.208   0.216   0.208   0.211   0.219
   163.75    0.201   0.181   0.194   0.200   0.206   0.211   0.213   0.224   0.223   0.219   0.216   0.224   0.221   0.207   0.210   0.216   0.220   0.207   0.215   0.217   0.216   0.207   0.191   0.191   0.191   0.204   0.208   0.209   0.211   0.216   0.207   0.209   0.209   0.214   0.219
   159.10    0.206   0.197   0.201   0.202   0.206   0.215   0.214   0.221   0.222   0.219   0.220   0.214   0.216   0.213   0.207   0.212   0.219   0.218   0.205   0.205   0.212   0.205   0.200   0.202   0.198   0.193   0.211   0.213   0.212   0.218   0.207   0.206   0.207   0.205   0.206
   154.45    0.209   0.207   0.215   0.208   0.213   0.209   0.225   0.228   0.220   0.213   0.214   0.219   0.219   0.220   0.223   0.221   0.218   0.213   0.221   0.211   0.204   0.204   0.205   0.204   0.195   0.200   0.204   0.204   0.207   0.210   0.206   0.208   0.209   0.205   0.210
   149.80    0.216   0.218   0.207   0.219   0.218   0.219   0.216   0.224   0.229   0.216   0.204   0.216   0.220   0.228   0.225   0.227   0.223   0.225   0.216   0.220   0.212   0.203   0.201   0.200   0.204   0.202   0.188   0.191   0.192   0.189   0.196   0.200   0.206   0.209   0.202
   145.15    0.223   0.217   0.209   0.216   0.228   0.222   0.224   0.214   0.230   0.214   0.206   0.212   0.214   0.221   0.214   0.224   0.223   0.223   0.219   0.210   0.202   0.190   0.192   0.192   0.198   0.196   0.194   0.197   0.195   0.192   0.191   0.196   0.200   0.208   0.192
   140.50    0.232   0.223   0.228   0.237   0.226   0.212   0.209   0.210   0.230   0.224   0.207   0.209   0.213   0.216   0.223   0.224   0.226   0.218   0.202   0.206   0.198   0.183   0.182   0.188   0.194   0.184   0.199   0.201   0.188   0.193   0.191   0.190   0.190   0.206   0.194
   135.85    0.230   0.234   0.235   0.235   0.223   0.213   0.213   0.212   0.221   0.221   0.221   0.222   0.221   0.221   0.219   0.209   0.210   0.200   0.200   0.200   0.189   0.186   0.184   0.185   0.194   0.191   0.201   0.196   0.190   0.187   0.184   0.191   0.190   0.183   0.189
   131.20    0.221   0.236   0.234   0.240   0.222   0.209   0.224   0.214   0.213   0.217   0.213   0.217   0.218   0.222   0.212   0.208   0.200   0.191   0.194   0.192   0.197   0.196   0.184   0.182   0.193   0.188   0.199   0.201   0.185   0.187   0.185   0.191   0.183   0.177   0.192
   126.55    0.232   0.236   0.228   0.239   0.233   0.218   0.217   0.212   0.200   0.213   0.209   0.216   0.225   0.215   0.213   0.194   0.187   0.186   0.191   0.189   0.189   0.197   0.190   0.191   0.195   0.194   0.207   0.210   0.202   0.201   0.187   0.183   0.186   0.191   0.198
   121.90    0.234   0.221   0.227   0.240   0.226   0.222   0.220   0.218   0.203   0.204   0.220   0.221   0.228   0.217   0.221   0.202   0.193   0.199   0.194   0.191   0.191   0.190   0.188   0.195   0.190   0.189   0.196   0.195   0.205   0.208   0.191   0.188   0.194   0.200   0.204
   117.25    0.231   0.229   0.230   0.235   0.226   0.220   0.215   0.224   0.211   0.210   0.232   0.227   0.230   0.224   0.216   0.212   0.198   0.190   0.192   0.189   0.189   0.191   0.195   0.197   0.195   0.190   0.197   0.190   0.200   0.197   0.195   0.194   0.206   0.198   0.197
   112.60    0.235   0.227   0.228   0.244   0.230   0.214   0.216   0.212   0.214   0.224   0.231   0.226   0.229   0.226   0.220   0.208   0.196   0.200   0.198   0.205   0.203   0.194   0.191   0.191   0.193   0.191   0.201   0.203   0.206   0.208   0.201   0.198   0.206   0.203   0.208
   107.95    0.241   0.233   0.237   0.240   0.234   0.233   0.223   0.208   0.214   0.226   0.232   0.235   0.232   0.215   0.215   0.208   0.195   0.208   0.207   0.202   0.204   0.199   0.183   0.187   0.194   0.193   0.205   0.216   0.212   0.209   0.202   0.201   0.215   0.224   0.226
   103.30    0.242   0.241   0.237   0.242   0.238   0.241   0.237   0.227   0.217   0.222   0.219   0.228   0.224   0.213   0.206   0.208   0.187   0.202   0.205   0.208   0.202   0.193   0.184   0.183   0.181   0.192   0.211   0.209   0.213   0.211   0.210   0.217   0.212   0.223   0.217
    98.65    0.254   0.253   0.257   0.266   0.242   0.244   0.230   0.220   0.207   0.215   0.220   0.227   0.226   0.222   0.223   0.201   0.198   0.204   0.217   0.209   0.200   0.183   0.174   0.185   0.184   0.195   0.202   0.209   0.221   0.210   0.207   0.210   0.216   0.217   0.217
    94.00    0.259   0.255   0.250   0.251   0.248   0.247   0.243   0.233   0.222   0.220   0.220   0.221   0.234   0.219   0.219   0.211   0.209   0.215   0.217   0.219   0.201   0.198   0.188   0.186   0.190   0.193   0.193   0.219   0.219   0.206   0.214   0.209   0.213   0.218   0.217
    89.35    0.239   0.251   0.244   0.236   0.241   0.234   0.238   0.232   0.224   0.221   0.213   0.210   0.228   0.233   0.220   0.218   0.220   0.215   0.221   0.210   0.211   0.218   0.201   0.198   0.190   0.202   0.199   0.217   0.216   0.208   0.215   0.218   0.221   0.216   0.216
    84.70    0.229   0.243   0.231   0.224   0.235   0.230   0.242   0.236   0.239   0.215   0.223   0.217   0.217   0.230   0.222   0.218   0.211   0.229   0.219   0.216   0.214   0.215   0.212   0.203   0.204   0.206   0.207   0.215   0.214   0.215   0.213   0.221   0.217   0.212   0.218
    80.05    0.237   0.235   0.219   0.223   0.215   0.215   0.227   0.230   0.234   0.229   0.208   0.209   0.220   0.231   0.230   0.219   0.212   0.222   0.219   0.216   0.214   0.214   0.200   0.203   0.200   0.208   0.209   0.221   0.220   0.218   0.225   0.229   0.220   0.229   0.234
    75.40    0.237   0.239   0.232   0.237   0.217   0.209   0.225   0.237   0.230   0.234   0.213   0.211   0.217   0.217   0.213   0.215   0.214   0.211   0.220   0.221   0.218   0.209   0.200   0.203   0.201   0.190   0.205   0.210   0.220   0.231   0.231   0.235   0.221   0.224   0.226
    70.75    0.233   0.233   0.227   0.222   0.227   0.219   0.231   0.234   0.241   0.225   0.215   0.218   0.215   0.224   0.219   0.216   0.212   0.209   0.215   0.211   0.214   0.203   0.198   0.202   0.210   0.192   0.203   0.204   0.222   0.223   0.232   0.232   0.226   0.229   0.229
    66.10    0.232   0.220   0.220   0.227   0.221   0.229   0.228   0.243   0.238   0.223   0.218   0.214   0.222   0.213   0.218   0.216   0.215   0.210   0.214   0.214   0.220   0.206   0.201   0.208   0.203   0.210   0.211   0.212   0.219   0.217   0.208   0.216   0.219   0.218   0.221
    61.45    0.226   0.222   0.224   0.211   0.211   0.221   0.230   0.236   0.240   0.229   0.226   0.223   0.224   0.218   0.226   0.214   0.214   0.208   0.213   0.220   0.209   0.216   0.206   0.199   0.200   0.203   0.209   0.207   0.222   0.214   0.206   0.216   0.211   0.208   0.210
    56.80    0.226   0.228   0.220   0.214   0.209   0.212   0.226   0.224   0.228   0.232   0.227   0.228   0.230   0.233   0.224   0.215   0.208   0.210   0.208   0.215   0.212   0.213   0.201   0.204   0.209   0.209   0.205   0.214   0.213   0.205   0.198   0.205   0.212   0.211   0.211
    52.15    0.217   0.212   0.216   0.214   0.221   0.216   0.214   0.211   0.227   0.227   0.231   0.220   0.233   0.222   0.228   0.220   0.211   0.206   0.206   0.210   0.208   0.202   0.203   0.205   0.211   0.210   0.208   0.204   0.205   0.193   0.198   0.211   0.212   0.215   0.204
    47.50    0.225   0.211   0.209   0.217   0.224   0.223   0.223   0.218   0.222   0.219   0.236   0.231   0.241   0.232   0.216   0.218   0.213   0.213   0.210   0.211   0.213   0.204   0.209   0.211   0.211   0.205   0.217   0.207   0.198   0.200   0.209   0.198   0.200   0.205   0.208
    42.85    0.221   0.223   0.224   0.239   0.227   0.229   0.233   0.232   0.242   0.233   0.235   0.238   0.249   0.254   0.226   0.214   0.226   0.222   0.222   0.224   0.221   0.198   0.218   0.204   0.199   0.203   0.210   0.208   0.209   0.205   0.208   0.205   0.201   0.206   0.200
    38.20    0.230   0.222   0.223   0.233   0.227   0.228   0.228   0.232   0.239   0.238   0.239   0.237   0.240   0.240   0.231   0.214   0.218   0.226   0.230   0.224   0.219   0.200   0.201   0.203   0.192   0.195   0.195   0.207   0.205   0.207   0.209   0.208   0.207   0.206   0.209
    33.55    0.234   0.219   0.225   0.227   0.218   0.218   0.221   0.217   0.236   0.231   0.248   0.241   0.251   0.242   0.232   0.219   0.234   0.233   0.226   0.223   0.219   0.200   0.194   0.194   0.187   0.187   0.202   0.204   0.196   0.199   0.209   0.209   0.207   0.208   0.209
    28.90    0.225   0.222   0.227   0.224   0.215   0.222   0.211   0.216   0.232   0.232   0.245   0.252   0.254   0.257   0.247   0.236   0.247   0.247   0.235   0.225   0.220   0.206   0.194   0.193   0.191   0.191   0.205   0.211   0.198   0.199   0.200   0.202   0.205   0.210   0.214
    24.25    0.220   0.230   0.220   0.217   0.229   0.235   0.229   0.231   0.234   0.240   0.243   0.238   0.256   0.259   0.248   0.254   0.249   0.249   0.242   0.218   0.205   0.202   0.208   0.201   0.190   0.197   0.194   0.199   0.201   0.207   0.200   0.205   0.209   0.208   0.222
    19.60    0.221   0.226   0.224   0.213   0.220   0.224   0.229   0.232   0.237   0.228   0.241   0.246   0.256   0.257   0.252   0.250   0.250   0.244   0.226   0.214   0.207   0.200   0.203   0.196   0.192   0.183   0.199   0.199   0.206   0.208   0.207   0.212   0.213   0.208   0.215
    14.95    0.225   0.223   0.220   0.219   0.220   0.239   0.238   0.236   0.239   0.233   0.241   0.244   0.251   0.249   0.243   0.247   0.249   0.237   0.223   0.209   0.213   0.191   0.186   0.175   0.173   0.182   0.188   0.200   0.205   0.210   0.210   0.207   0.207   0.208   0.212
    10.30    0.222   0.220   0.226   0.225   0.231   0.227   0.238   0.239   0.255   0.240   0.228   0.238   0.248   0.241   0.235   0.235   0.249   0.234   0.217   0.207   0.211   0.194   0.184   0.188   0.181   0.175   0.178   0.200   0.198   0.203   0.199   0.198   0.214   0.206   0.208
     5.65    0.219   0.223   0.213   0.213   0.219   0.225   0.233   0.238   0.241   0.237   0.242   0.239   0.241   0.233   0.235   0.232   0.239   0.233   0.226   0.208   0.198   0.201   0.199   0.201   0.189   0.183   0.185   0.194   0.194   0.197   0.202   0.214   0.212   0.214   0.216
     1.00    0.220   0.211   0.213   0.210   0.211   0.219   0.218   0.224   0.232   0.239   0.235   0.243   0.233   0.244   0.230   0.227   0.218   0.231   0.217   0.217   0.205   0.197   0.203   0.209   0.196   0.190   0.197   0.195   0.205   0.208   0.206   0.211   0.210   0.221   0.216

   Height   Standard deviation at grid points for the w component:
   168.40    0.119   0.120   0.119   0.120   0.118   0.125   0.126   0.125   0.126   0.120   0.117   0.122   0.114   0.113   0.115   0.116   0.119   0.121   0.125   0.124   0.124   0.119   0.123   0.123   0.119   0.123   0.120   0.119   0.116   0.112   0.112   0.112   0.115   0.117   0.115
   163.75    0.118   0.119   0.114   0.117   0.119   0.125   0.122   0.119   0.117   0.119   0.114   0.117   0.115   0.114   0.115   0.120   0.125   0.122   0.120   0.120   0.119   0.119   0.119   0.124   0.123   0.121   0.119   0.116   0.113   0.109   0.115   0.117   0.117   0.118   0.119
   159.10    0.118   0.117   0.113   0.117   0.120   0.121   0.121   0.120   0.116   0.114   0.114   0.121   0.118   0.119   0.119   0.123   0.123   0.119   0.122   0.123   0.127   0.121   0.120   0.122   0.123   0.124   0.123   0.119   0.118   0.113   0.114   0.115   0.117   0.118   0.118
   154.45    0.116   0.116   0.112   0.116   0.121   0.122   0.120   0.118   0.115   0.113   0.115   0.121   0.123   0.119   0.123   0.125   0.122   0.119   0.130   0.130   0.130   0.125   0.123   0.120   0.123   0.122   0.122   0.116   0.115   0.116   0.113   0.113   0.114   0.115   0.122
   149.80    0.120   0.116   0.118   0.119   0.119   0.120   0.117   0.118   0.119   0.115   0.117   0.122   0.121   0.122   0.124   0.120   0.121   0.122   0.124   0.134   0.136   0.130   0.130   0.127   0.124   0.121   0.118   0.116   0.112   0.120   0.118   0.114   0.117   0.117   0.121
   145.15    0.120   0.116   0.119   0.121   0.121   0.115   0.110   0.116   0.116   0.117   0.119   0.118   0.121   0.121   0.118   0.125   0.123   0.126   0.127   0.136   0.138   0.137   0.133   0.129   0.123   0.116   0.116   0.113   0.115   0.120   0.120   0.117   0.117   0.117   0.123
   140.50    0.120   0.117   0.120   0.122   0.116   0.113   0.113   0.114   0.118   0.121   0.119   0.119   0.117   0.119   0.123   0.124   0.128   0.127   0.125   0.131   0.131   0.131   0.126   0.129   0.121   0.123   0.115   0.115   0.115   0.116   0.119   0.118   0.118   0.117   0.119
   135.85    0.117   0.118   0.118   0.120   0.117   0.120   0.114   0.115   0.120   0.123   0.121   0.122   0.120   0.120   0.119   0.123   0.125   0.123   0.127   0.130   0.130   0.131   0.133   0.127   0.124   0.122   0.116   0.120   0.116   0.113   0.116   0.113   0.116   0.116   0.116
   131.20    0.116   0.118   0.124   0.124   0.122   0.118   0.118   0.118   0.121   0.121   0.122   0.118   0.122   0.123   0.121   0.122   0.125   0.121   0.121   0.127   0.128   0.127   0.127   0.129   0.128   0.120   0.118   0.114   0.114   0.115   0.118   0.117   0.116   0.117   0.118
   126.55    0.117   0.117   0.118   0.119   0.118   0.116   0.114   0.116   0.117   0.118   0.120   0.117   0.125   0.125   0.123   0.124   0.127   0.122   0.123   0.123   0.126   0.120   0.123   0.121   0.121   0.122   0.121   0.113   0.115   0.114   0.114   0.113   0.114   0.115   0.117
   121.90    0.115   0.115   0.116   0.116   0.118   0.115   0.118   0.115   0.120   0.120   0.123   0.125   0.125   0.123   0.123   0.128   0.132   0.127   0.124   0.122   0.119   0.124   0.121   0.120   0.118   0.116   0.118   0.119   0.117   0.116   0.116   0.113   0.113   0.119   0.115
   117.25    0.115   0.117   0.114   0.115   0.116   0.117   0.119   0.117   0.124   0.124   0.122   0.122   0.123   0.125   0.124   0.125   0.127   0.121   0.119   0.120   0.126   0.126   0.121   0.115   0.120   0.118   0.115   0.118   0.122   0.119   0.113   0.113   0.116   0.113   0.113
   112.60    0.114   0.117   0.119   0.117   0.118   0.111   0.119   0.121   0.124   0.123   0.122   0.127   0.124   0.125   0.125   0.124   0.128   0.123   0.118   0.118   0.124   0.122   0.121   0.118   0.121   0.117   0.115   0.119   0.120   0.120   0.118   0.114   0.116   0.116   0.115
   107.95    0.120   0.119   0.124   0.123   0.119   0.121   0.118   0.127   0.126   0.120   0.123   0.125   0.120   0.122   0.120   0.123   0.127   0.126   0.120   0.121   0.122   0.121   0.118   0.117   0.117   0.121   0.119   0.115   0.118   0.122   0.120   0.117   0.118   0.116   0.115
   103.30    0.120   0.120   0.121   0.123   0.119   0.122   0.121   0.126   0.127   0.120   0.120   0.121   0.120   0.117   0.120   0.120   0.123   0.120   0.118   0.119   0.122   0.117   0.121   0.118   0.117   0.114   0.115   0.118   0.120   0.117   0.120   0.118   0.120   0.122   0.114
    98.65    0.118   0.116   0.120   0.120   0.117   0.122   0.122   0.124   0.122   0.123   0.124   0.121   0.119   0.119   0.120   0.116   0.122   0.122   0.120   0.118   0.117   0.116   0.116   0.116   0.118   0.113   0.111   0.113   0.114   0.117   0.118   0.116   0.121   0.120   0.119
    94.00    0.117   0.116   0.119   0.120   0.121   0.123   0.122   0.124   0.121   0.124   0.122   0.120   0.117   0.116   0.121   0.121   0.120   0.118   0.118   0.121   0.120   0.116   0.116   0.118   0.116   0.114   0.112   0.110   0.117   0.116   0.118   0.117   0.114   0.115   0.111
    89.35    0.120   0.121   0.121   0.117   0.119   0.115   0.115   0.123   0.120   0.120   0.121   0.121   0.123   0.120   0.118   0.115   0.120   0.118   0.118   0.121   0.122   0.120   0.121   0.115   0.109   0.110   0.113   0.111   0.115   0.112   0.115   0.123   0.117   0.111   0.115
    84.70    0.122   0.123   0.122   0.121   0.121   0.121   0.118   0.124   0.119   0.121   0.124   0.120   0.119   0.121   0.117   0.119   0.120   0.117   0.120   0.121   0.119   0.119   0.120   0.123   0.114   0.118   0.112   0.111   0.111   0.115   0.117   0.118   0.115   0.115   0.114
    80.05    0.119   0.120   0.118   0.121   0.121   0.125   0.120   0.119   0.119   0.121   0.124   0.121   0.121   0.119   0.117   0.119   0.121   0.122   0.121   0.122   0.116   0.117   0.120   0.121   0.115   0.118   0.114   0.111   0.113   0.114   0.113   0.119   0.118   0.115   0.115
    75.40    0.122   0.116   0.117   0.122   0.123   0.130   0.127   0.122   0.120   0.121   0.122   0.116   0.122   0.126   0.124   0.123   0.124   0.121   0.118   0.116   0.117   0.117   0.120   0.120   0.116   0.113   0.118   0.115   0.111   0.115   0.113   0.114   0.116   0.117   0.113
    70.75    0.122   0.124   0.122   0.125   0.122   0.126   0.125   0.119   0.122   0.122   0.120   0.121   0.118   0.118   0.124   0.124   0.119   0.120   0.124   0.122   0.114   0.113   0.118   0.117   0.120   0.117   0.116   0.116   0.112   0.116   0.115   0.109   0.114   0.119   0.109
    66.10    0.121   0.122   0.122   0.124   0.125   0.124   0.123   0.121   0.118   0.121   0.115   0.121   0.119   0.119   0.123   0.121   0.124   0.124   0.123   0.125   0.123   0.122   0.117   0.116   0.118   0.117   0.118   0.117   0.121   0.122   0.119   0.117   0.115   0.116   0.116
    61.45    0.128   0.125   0.121   0.127   0.126   0.128   0.126   0.127   0.124   0.121   0.116   0.118   0.117   0.121   0.122   0.124   0.124   0.123   0.122   0.125   0.121   0.117   0.118   0.116   0.112   0.113   0.118   0.120   0.121   0.125   0.126   0.121   0.115   0.117   0.115
    56.80    0.125   0.122   0.124   0.130   0.128   0.125   0.124   0.124   0.124   0.119   0.119   0.116   0.123   0.124   0.119   0.121   0.118   0.118   0.122   0.121   0.116   0.117   0.114   0.113   0.112   0.117   0.118   0.122   0.122   0.128   0.128   0.122   0.115   0.116   0.116
    52.15    0.126   0.129   0.129   0.127   0.127   0.129   0.130   0.124   0.122   0.124   0.122   0.123   0.125   0.127   0.124   0.121   0.118   0.121   0.122   0.121   0.117   0.117   0.112   0.112   0.113   0.121   0.121   0.126   0.123   0.123   0.126   0.117   0.118   0.115   0.116
    47.50    0.130   0.127   0.126   0.122   0.119   0.125   0.123   0.127   0.126   0.127   0.122   0.124   0.128   0.127   0.124   0.120   0.117   0.119   0.121   0.121   0.119   0.117   0.113   0.112   0.117   0.121   0.122   0.122   0.121   0.124   0.123   0.119   0.117   0.120   0.119
    42.85    0.126   0.123   0.121   0.118   0.123   0.119   0.120   0.123   0.124   0.123   0.126   0.125   0.125   0.122   0.115   0.116   0.118   0.118   0.119   0.123   0.120   0.118   0.113   0.116   0.119   0.118   0.118   0.121   0.116   0.118   0.122   0.116   0.121   0.116   0.118
    38.20    0.130   0.127   0.119   0.120   0.120   0.116   0.120   0.125   0.122   0.122   0.123   0.125   0.121   0.121   0.116   0.117   0.120   0.116   0.120   0.120   0.122   0.120   0.120   0.118   0.117   0.121   0.117   0.117   0.115   0.117   0.118   0.120   0.117   0.117   0.119
    33.55    0.126   0.128   0.124   0.120   0.114   0.115   0.122   0.126   0.122   0.117   0.125   0.125   0.124   0.120   0.120   0.119   0.122   0.120   0.118   0.120   0.124   0.118   0.118   0.117   0.114   0.118   0.115   0.117   0.114   0.114   0.116   0.120   0.118   0.117   0.117
    28.90    0.129   0.130   0.129   0.124   0.113   0.114   0.120   0.117   0.119   0.121   0.123   0.131   0.131   0.125   0.122   0.122   0.118   0.115   0.118   0.119   0.118   0.122   0.118   0.120   0.117   0.117   0.120   0.118   0.119   0.114   0.117   0.118   0.117   0.113   0.116
    24.25    0.127   0.129   0.124   0.121   0.121   0.116   0.121   0.121   0.123   0.125   0.124   0.124   0.128   0.125   0.123   0.124   0.114   0.108   0.118   0.119   0.120   0.119   0.118   0.123   0.116   0.117   0.116   0.117   0.114   0.115   0.115   0.120   0.114   0.115   0.114
    19.60    0.125   0.127   0.124   0.122   0.124   0.120   0.121   0.121   0.121   0.120   0.120   0.121   0.123   0.121   0.119   0.114   0.115   0.115   0.114   0.118   0.120   0.118   0.119   0.118   0.115   0.117   0.117   0.119   0.117   0.114   0.119   0.117   0.117   0.116   0.115
    14.95    0.127   0.127   0.124   0.128   0.126   0.122   0.121   0.121   0.120   0.115   0.119   0.121   0.120   0.117   0.120   0.117   0.114   0.116   0.117   0.115   0.122   0.117   0.117   0.112   0.117   0.116   0.117   0.122   0.119   0.117   0.115   0.116   0.114   0.121   0.120
    10.30    0.127   0.127   0.123   0.121   0.123   0.124   0.123   0.119   0.117   0.113   0.117   0.118   0.116   0.116   0.117   0.117   0.116   0.118   0.117   0.115   0.115   0.117   0.114   0.111   0.111   0.117   0.119   0.120   0.118   0.115   0.109   0.114   0.118   0.115   0.123
     5.65    0.125   0.122   0.121   0.120   0.122   0.124   0.123   0.116   0.114   0.119   0.118   0.116   0.115   0.112   0.115   0.114   0.122   0.121   0.116   0.115   0.116   0.114   0.113   0.109   0.112   0.116   0.115   0.114   0.114   0.109   0.107   0.110   0.113   0.115   0.116
     1.00    0.119   0.122   0.119   0.121   0.124   0.122   0.120   0.116   0.114   0.116   0.120   0.116   0.116   0.118   0.115   0.119   0.121   0.118   0.121   0.119   0.118   0.115   0.112   0.112   0.112   0.115   0.114   0.113   0.111   0.111   0.108   0.112   0.115   0.115   0.115

   Mean standard deviation across all grid points:
      u component:    0.270 m/s
      v component:    0.214 m/s
      w component:    0.119 m/s


U-component (X) statistics from the interpolated hub point:

   Mean =   9.9913 m/s
   TI   =   2.4877 %


Processing complete.  6317.5 CPU seconds used.
