
This summary file was generated by TurbSim (from OpenFAST-v3.5.3) on 20-Apr-2025 at 02:37:49.


Runtime Options:

**********  Random seed #1
    RANLUX  Type of random number generator
         F  Output binary HH turbulence parameters?
         F  Output formatted turbulence parameters?
         F  Output AeroDyn HH files?
         T  Output AeroDyn FF files?
         F  Output BLADED FF files?
         F  Output tower data?
         F  Output HAWC FF files?
         F  Output formatted FF files?
         T  Output coherent turbulence time step file?
 0 -  NONE  IEC turbulence models scaled to exact specified standard deviation


Turbine/Model Specifications:

        37  Vertical grid-point matrix dimension
        35  Horizontal grid-point matrix dimension
     0.250  Time step [seconds]
   900.000  Analysis time [seconds]
   900.000  Usable output time [seconds]
    89.350  Hub height [m]
   167.400  Grid height [m]
   158.100  Grid width [m]
     0.000  Vertical flow angle [degrees]
     0.000  Horizontal flow angle [degrees]


Meteorological Boundary Conditions:

    TIMESR  User-input time series spectral model
       N/A  IEC standard
       N/A  IEC turbulence characteristic
       N/A  IEC turbulence type
       N/A  IEC Extreme Turbulence Model (ETM) "c" parameter [m/s]
       PL   Wind profile type
    90.000  Reference height [m]
    10.000  Reference wind speed [m/s]
       N/A  Jet height [m]
     0.120  Power law exponent
     0.030  Surface roughness length [m]


Non-IEC Meteorological Boundary Conditions:

    45.000  Site latitude [degrees]
     0.050  Gradient Richardson number
     0.480  Friction or shear velocity [m/s]
       N/A  Mixing layer depth [m]
       N/A  Mean hub u'w' Reynolds stress
       N/A  Mean hub u'v' Reynolds stress
       N/A  Mean hub v'w' Reynolds stress


Spatial Coherence Models:

       IEC  u-component coherence model
       IEC  v-component coherence model
       IEC  w-component coherence model
(   12.000, 0.353E-03)  u-component coherence parameters
(   12.000, 0.353E-03)  v-component coherence parameters
(   12.000, 0.353E-03)  w-component coherence parameters
       N/A  Coherence exponent


Coherent Turbulence Scaling Parameters:

.\EventData
            Name of the path containing the coherent turbulence data files
       dns  Type of coherent turbulence data files
     1.000  Disturbance scale (ratio of wave height to rotor diameter)
     0.500  Fractional location of tower centerline from right
     0.500  Fractional location of hub height from the bottom of the dataset
    30.000  Minimum start time for coherent structures [seconds]


Profiles from User-Defined Time-Series Input:

  Height   Wind Speed   Horizontal Angle   Vertical Angle
   (m)        (m/s)          (deg)              (deg)    
  ------   ----------   ----------------   --------------
   94.00      10.00          -0.63               -0.00


You have requested that the following file(s) be generated:

   /kfs3/scratch/agupta/Projects/RL_Incubator/FinalRuns_Veer/Seed4/./FFSim_Seed4/Cond00_v10.0_PL0.12_TI3.0/Case0_wdirp00/Seed_3/TurbSim/HighT18.bts (AeroDyn/TurbSim full-field wind file)


Turbulence Simulation Scaling Parameter Summary:

   Turbulence model used                            =  User-input time series
   Gradient Richardson number                       =    0.050
   Monin-Obukhov (M-O) z/L parameter                =    0.067
   Monin-Obukhov (M-O) length scale                 = 1340.250 m
   Mean wind speed at hub height                    =    9.991 m/s

   Wind profile type                                =  Power law
   Power law exponent                               =    0.120
   Mean shear across rotor disk                     =    0.019 (m/s)/m
   Assumed rotor diameter                           =  158.100 m
   Surface roughness length                         =    0.030 m

   Nyquist frequency of turbulent wind field        =    2.000 Hz

   Number of time steps in the FFT                  =     3600
   Number of time steps output                      =     3600
   Number of points simulated                       =     1296


Mean Flow Angles:

   Vertical   =   0.0 degrees
   Horizontal =   0.0 degrees

Mean Wind Speed Profile:

   Height    Wind Speed   Horizontal Angle  Vertical Angle  U-comp (X)   V-comp (Y)   W-comp (Z)
     (m)        (m/s)         (degrees)       (degrees)       (m/s)        (m/s)        (m/s)   
   ------    ----------   ----------------  --------------  ----------   ----------   ----------
    168.4       10.78            0.00            0.00         10.78         0.00         0.00
    163.7       10.74            0.00            0.00         10.74         0.00         0.00
    159.1       10.71            0.00            0.00         10.71         0.00         0.00
    154.4       10.67            0.00            0.00         10.67         0.00         0.00
    149.8       10.63            0.00            0.00         10.63         0.00         0.00
    145.1       10.59            0.00            0.00         10.59         0.00         0.00
    140.5       10.55            0.00            0.00         10.55         0.00         0.00
    135.8       10.51            0.00            0.00         10.51         0.00         0.00
    131.2       10.46            0.00            0.00         10.46         0.00         0.00
    126.5       10.42            0.00            0.00         10.42         0.00         0.00
    121.9       10.37            0.00            0.00         10.37         0.00         0.00
    117.2       10.32            0.00            0.00         10.32         0.00         0.00
    112.6       10.27            0.00            0.00         10.27         0.00         0.00
    107.9       10.22            0.00            0.00         10.22         0.00         0.00
    103.3       10.17            0.00            0.00         10.17         0.00         0.00
     98.6       10.11            0.00            0.00         10.11         0.00         0.00
     94.0       10.05            0.00            0.00         10.05         0.00         0.00
     89.3        9.99            0.00            0.00          9.99         0.00         0.00
     84.7        9.93            0.00            0.00          9.93         0.00         0.00
     80.0        9.86            0.00            0.00          9.86         0.00         0.00
     75.4        9.79            0.00            0.00          9.79         0.00         0.00
     70.7        9.72            0.00            0.00          9.72         0.00         0.00
     66.1        9.64            0.00            0.00          9.64         0.00         0.00
     61.4        9.55            0.00            0.00          9.55         0.00         0.00
     56.8        9.46            0.00            0.00          9.46         0.00         0.00
     52.1        9.37            0.00            0.00          9.37         0.00         0.00
     47.5        9.26            0.00            0.00          9.26         0.00         0.00
     42.8        9.15            0.00            0.00          9.15         0.00         0.00
     38.2        9.02            0.00            0.00          9.02         0.00         0.00
     33.5        8.88            0.00            0.00          8.88         0.00         0.00
     28.9        8.73            0.00            0.00          8.73         0.00         0.00
     24.2        8.54            0.00            0.00          8.54         0.00         0.00
     19.6        8.33            0.00            0.00          8.33         0.00         0.00
     14.9        8.06            0.00            0.00          8.06         0.00         0.00
     10.3        7.71            0.00            0.00          7.71         0.00         0.00
      5.6        7.17            0.00            0.00          7.17         0.00         0.00
      1.0        5.83            0.00            0.00          5.83         0.00         0.00


Harvested Random Seeds after Generation of the Random Numbers:

     65026800 K 1
            0 K 2


Hub-Height Simulated Turbulence Statistical Summary:

   Type of Wind        Min (m/s)   Mean (m/s)    Max (m/s)  Sigma (m/s)       TI (%)
   ----------------    ---------   ----------    ---------  -----------       ------
   Longitudinal (u)         9.08         9.99        10.90        0.281        2.810
   Lateral (v)             -0.70        -0.00         0.85        0.239        2.395
   Vertical (w)            -0.47        -0.00         0.56        0.139        1.387
   U component              9.08         9.99        10.90        0.281        2.810
   V component             -0.70        -0.00         0.85        0.239        2.395
   W component             -0.47        -0.00         0.56        0.139        1.387
   Horizontal (U&V)         9.08         9.99        10.91        0.281        2.810
   Total                    9.08        10.00        10.91        0.281        2.809

                       Min Reynolds     Mean Reynolds    Max Reynolds    Correlation
   Product             Stress (m/s)^2   Stress (m/s)^2   Stress (m/s)^2  Coefficient
   ----------------    --------------   --------------   --------------  -----------
   u'w'                     -0.228            -0.004             0.218        -0.092
   u'v'                     -0.282             0.003             0.464         0.048
   v'w'                     -0.172            -0.001             0.313        -0.021


   Friction Velocity (Ustar)  =      0.060 m/s
   Maximum Instantaneous TKE  =      0.547 (m/s)^2
   Maximum Instantaneous CTKE =      0.257 (m/s)^2


Grid Point Variance Summary:

   Y-coord  -79.05  -74.40  -69.75  -65.10  -60.45  -55.80  -51.15  -46.50  -41.85  -37.20  -32.55  -27.90  -23.25  -18.60  -13.95   -9.30   -4.65    0.00    4.65    9.30   13.95   18.60   23.25   27.90   32.55   37.20   41.85   46.50   51.15   55.80   60.45   65.10   69.75   74.40   79.05

   Height   Standard deviation at grid points for the u component:
   168.40    0.267   0.260   0.252   0.266   0.248   0.262   0.272   0.274   0.268   0.262   0.264   0.275   0.286   0.281   0.279   0.262   0.277   0.302   0.286   0.277   0.287   0.301   0.321   0.339   0.310   0.300   0.302   0.291   0.286   0.284   0.298   0.291   0.300   0.302   0.319
   163.75    0.263   0.267   0.264   0.262   0.244   0.257   0.259   0.262   0.265   0.282   0.267   0.259   0.285   0.280   0.267   0.276   0.306   0.303   0.295   0.288   0.306   0.323   0.332   0.327   0.300   0.295   0.291   0.276   0.285   0.291   0.287   0.282   0.293   0.295   0.307
   159.10    0.260   0.244   0.257   0.263   0.240   0.255   0.257   0.245   0.272   0.298   0.266   0.264   0.300   0.295   0.297   0.282   0.296   0.308   0.298   0.301   0.304   0.300   0.306   0.313   0.299   0.284   0.296   0.266   0.269   0.263   0.263   0.275   0.273   0.282   0.290
   154.45    0.264   0.248   0.237   0.262   0.260   0.266   0.254   0.256   0.254   0.279   0.267   0.260   0.286   0.292   0.284   0.275   0.289   0.305   0.290   0.276   0.282   0.294   0.311   0.283   0.278   0.270   0.267   0.267   0.255   0.245   0.268   0.276   0.263   0.268   0.275
   149.80    0.262   0.253   0.245   0.253   0.255   0.249   0.256   0.259   0.252   0.259   0.269   0.256   0.262   0.288   0.294   0.283   0.292   0.290   0.278   0.281   0.263   0.291   0.287   0.292   0.270   0.244   0.239   0.256   0.251   0.253   0.266   0.265   0.247   0.248   0.252
   145.15    0.291   0.259   0.247   0.251   0.262   0.265   0.258   0.274   0.280   0.277   0.270   0.258   0.264   0.285   0.287   0.297   0.269   0.296   0.284   0.277   0.267   0.272   0.281   0.279   0.260   0.252   0.249   0.243   0.227   0.252   0.255   0.270   0.252   0.254   0.254
   140.50    0.286   0.288   0.270   0.275   0.272   0.267   0.267   0.272   0.274   0.269   0.261   0.249   0.248   0.274   0.281   0.285   0.271   0.292   0.312   0.296   0.290   0.282   0.277   0.263   0.251   0.246   0.237   0.227   0.220   0.249   0.244   0.262   0.269   0.271   0.242
   135.85    0.310   0.287   0.282   0.292   0.267   0.269   0.280   0.274   0.273   0.285   0.289   0.286   0.280   0.291   0.300   0.294   0.295   0.313   0.313   0.302   0.310   0.301   0.280   0.243   0.236   0.234   0.243   0.232   0.241   0.264   0.290   0.293   0.292   0.274   0.251
   131.20    0.308   0.276   0.273   0.268   0.269   0.277   0.279   0.267   0.279   0.303   0.317   0.297   0.292   0.285   0.295   0.290   0.307   0.285   0.289   0.296   0.284   0.290   0.299   0.259   0.242   0.256   0.241   0.254   0.250   0.261   0.273   0.278   0.277   0.266   0.265
   126.55    0.294   0.272   0.267   0.257   0.256   0.276   0.275   0.278   0.288   0.293   0.298   0.310   0.308   0.291   0.292   0.294   0.293   0.289   0.283   0.287   0.289   0.283   0.292   0.271   0.250   0.272   0.259   0.245   0.261   0.268   0.263   0.279   0.266   0.266   0.278
   121.90    0.289   0.292   0.293   0.266   0.264   0.273   0.279   0.285   0.281   0.276   0.292   0.298   0.287   0.305   0.315   0.301   0.304   0.286   0.276   0.294   0.274   0.279   0.281   0.248   0.262   0.268   0.270   0.258   0.259   0.261   0.260   0.293   0.303   0.279   0.266
   117.25    0.314   0.310   0.278   0.270   0.262   0.271   0.273   0.275   0.278   0.288   0.288   0.294   0.313   0.300   0.307   0.299   0.299   0.311   0.287   0.295   0.294   0.268   0.261   0.251   0.258   0.266   0.247   0.260   0.284   0.279   0.278   0.283   0.288   0.267   0.247
   112.60    0.307   0.304   0.292   0.296   0.281   0.272   0.270   0.271   0.282   0.291   0.291   0.301   0.315   0.325   0.322   0.311   0.295   0.318   0.300   0.317   0.292   0.272   0.252   0.253   0.243   0.241   0.240   0.257   0.271   0.267   0.272   0.284   0.275   0.256   0.256
   107.95    0.297   0.308   0.304   0.290   0.289   0.287   0.273   0.270   0.280   0.282   0.291   0.300   0.310   0.300   0.314   0.301   0.314   0.321   0.324   0.306   0.287   0.287   0.254   0.243   0.243   0.239   0.251   0.263   0.273   0.257   0.271   0.264   0.251   0.239   0.232
   103.30    0.286   0.299   0.281   0.309   0.289   0.283   0.263   0.271   0.265   0.283   0.285   0.299   0.309   0.300   0.305   0.319   0.323   0.323   0.318   0.322   0.285   0.280   0.243   0.228   0.249   0.234   0.243   0.250   0.248   0.262   0.250   0.268   0.266   0.244   0.253
    98.65    0.292   0.291   0.314   0.310   0.294   0.267   0.281   0.273   0.266   0.285   0.287   0.295   0.293   0.302   0.298   0.308   0.308   0.303   0.324   0.303   0.302   0.278   0.247   0.242   0.237   0.251   0.246   0.234   0.238   0.243   0.238   0.259   0.284   0.259   0.272
    94.00    0.299   0.294   0.319   0.313   0.304   0.280   0.293   0.294   0.283   0.276   0.295   0.308   0.296   0.290   0.272   0.296   0.279   0.301   0.304   0.292   0.274   0.274   0.238   0.248   0.242   0.235   0.239   0.248   0.250   0.259   0.254   0.233   0.261   0.283   0.270
    89.35    0.306   0.300   0.301   0.304   0.300   0.285   0.293   0.286   0.274   0.270   0.290   0.292   0.298   0.307   0.278   0.302   0.287   0.281   0.294   0.288   0.278   0.273   0.260   0.250   0.234   0.225   0.224   0.236   0.251   0.270   0.251   0.236   0.257   0.285   0.289
    84.70    0.304   0.276   0.276   0.283   0.269   0.270   0.276   0.269   0.268   0.273   0.274   0.282   0.279   0.293   0.293   0.271   0.278   0.273   0.274   0.282   0.275   0.281   0.259   0.234   0.240   0.220   0.220   0.230   0.227   0.258   0.250   0.241   0.270   0.283   0.279
    80.05    0.283   0.270   0.277   0.267   0.262   0.260   0.263   0.258   0.254   0.251   0.260   0.261   0.262   0.270   0.279   0.278   0.265   0.247   0.249   0.258   0.264   0.266   0.262   0.241   0.224   0.224   0.227   0.237   0.231   0.264   0.255   0.266   0.266   0.277   0.276
    75.40    0.282   0.260   0.261   0.265   0.256   0.257   0.241   0.240   0.253   0.237   0.240   0.249   0.246   0.247   0.264   0.251   0.252   0.252   0.251   0.249   0.248   0.252   0.248   0.228   0.219   0.226   0.218   0.235   0.231   0.248   0.255   0.269   0.273   0.276   0.269
    70.75    0.268   0.262   0.268   0.283   0.275   0.254   0.227   0.224   0.241   0.244   0.230   0.234   0.233   0.239   0.254   0.256   0.256   0.262   0.258   0.256   0.244   0.238   0.256   0.240   0.237   0.226   0.228   0.220   0.228   0.238   0.247   0.266   0.279   0.261   0.265
    66.10    0.263   0.262   0.285   0.290   0.283   0.257   0.235   0.224   0.225   0.229   0.216   0.221   0.230   0.228   0.247   0.254   0.254   0.258   0.260   0.260   0.263   0.252   0.262   0.261   0.241   0.239   0.229   0.228   0.240   0.243   0.240   0.258   0.268   0.261   0.263
    61.45    0.271   0.265   0.297   0.285   0.266   0.257   0.229   0.225   0.228   0.218   0.225   0.222   0.223   0.240   0.242   0.253   0.244   0.266   0.257   0.274   0.257   0.257   0.254   0.282   0.258   0.247   0.249   0.256   0.240   0.238   0.247   0.264   0.280   0.267   0.236
    56.80    0.279   0.280   0.292   0.282   0.255   0.260   0.236   0.234   0.232   0.222   0.233   0.233   0.219   0.217   0.234   0.245   0.246   0.243   0.248   0.255   0.242   0.268   0.264   0.301   0.281   0.268   0.260   0.261   0.256   0.244   0.240   0.276   0.280   0.260   0.249
    52.15    0.281   0.258   0.278   0.272   0.265   0.271   0.241   0.252   0.245   0.237   0.230   0.210   0.222   0.229   0.235   0.232   0.253   0.230   0.242   0.254   0.249   0.271   0.273   0.286   0.262   0.272   0.262   0.275   0.271   0.266   0.254   0.266   0.254   0.244   0.250
    47.50    0.260   0.260   0.255   0.278   0.256   0.256   0.263   0.257   0.260   0.242   0.229   0.221   0.216   0.218   0.218   0.219   0.238   0.233   0.245   0.242   0.250   0.267   0.257   0.271   0.272   0.259   0.271   0.270   0.259   0.251   0.269   0.269   0.241   0.247   0.258
    42.85    0.300   0.279   0.296   0.283   0.271   0.268   0.265   0.267   0.248   0.257   0.234   0.222   0.203   0.201   0.220   0.218   0.232   0.248   0.245   0.241   0.239   0.250   0.250   0.255   0.251   0.257   0.251   0.275   0.257   0.262   0.260   0.252   0.244   0.253   0.242
    38.20    0.295   0.284   0.292   0.278   0.283   0.288   0.272   0.252   0.260   0.265   0.249   0.216   0.210   0.213   0.219   0.230   0.253   0.239   0.257   0.225   0.247   0.236   0.247   0.245   0.258   0.248   0.244   0.255   0.253   0.251   0.258   0.241   0.251   0.255   0.242
    33.55    0.300   0.295   0.301   0.283   0.282   0.284   0.287   0.276   0.251   0.267   0.260   0.231   0.225   0.229   0.237   0.236   0.256   0.256   0.253   0.243   0.242   0.236   0.237   0.262   0.246   0.253   0.265   0.241   0.256   0.272   0.266   0.246   0.256   0.241   0.261
    28.90    0.290   0.268   0.267   0.276   0.271   0.273   0.271   0.279   0.274   0.268   0.246   0.222   0.248   0.254   0.232   0.232   0.251   0.254   0.263   0.249   0.232   0.245   0.245   0.269   0.270   0.261   0.274   0.259   0.265   0.271   0.272   0.265   0.237   0.234   0.246
    24.25    0.272   0.262   0.254   0.256   0.293   0.261   0.273   0.281   0.277   0.273   0.250   0.260   0.249   0.250   0.239   0.236   0.227   0.252   0.261   0.262   0.245   0.251   0.258   0.263   0.279   0.279   0.264   0.280   0.280   0.281   0.272   0.255   0.239   0.240   0.244
    19.60    0.267   0.242   0.253   0.270   0.262   0.269   0.286   0.267   0.267   0.262   0.265   0.252   0.233   0.234   0.245   0.241   0.244   0.263   0.257   0.256   0.267   0.289   0.286   0.284   0.279   0.290   0.285   0.271   0.283   0.268   0.261   0.257   0.258   0.247   0.260
    14.95    0.275   0.249   0.259   0.243   0.262   0.278   0.272   0.279   0.274   0.265   0.275   0.261   0.255   0.222   0.236   0.240   0.236   0.251   0.259   0.275   0.292   0.308   0.299   0.264   0.268   0.291   0.308   0.290   0.294   0.276   0.263   0.262   0.263   0.273   0.264
    10.30    0.293   0.256   0.255   0.240   0.260   0.267   0.277   0.283   0.281   0.249   0.270   0.252   0.234   0.244   0.230   0.220   0.241   0.249   0.261   0.286   0.295   0.300   0.267   0.280   0.281   0.290   0.299   0.300   0.278   0.278   0.270   0.270   0.266   0.269   0.287
     5.65    0.285   0.268   0.230   0.232   0.237   0.231   0.252   0.251   0.273   0.251   0.250   0.248   0.238   0.231   0.234   0.229   0.240   0.273   0.283   0.282   0.273   0.296   0.275   0.275   0.288   0.268   0.285   0.300   0.287   0.275   0.267   0.277   0.266   0.279   0.299
     1.00    0.268   0.272   0.242   0.233   0.228   0.238   0.248   0.235   0.252   0.242   0.256   0.270   0.242   0.234   0.234   0.238   0.240   0.250   0.272   0.264   0.273   0.293   0.269   0.271   0.296   0.285   0.270   0.280   0.277   0.283   0.286   0.286   0.284   0.282   0.268

   Height   Standard deviation at grid points for the v component:
   168.40    0.229   0.242   0.232   0.226   0.220   0.230   0.226   0.225   0.235   0.248   0.239   0.226   0.233   0.239   0.237   0.231   0.233   0.230   0.237   0.235   0.225   0.223   0.219   0.212   0.209   0.212   0.222   0.217   0.216   0.232   0.228   0.229   0.226   0.237   0.240
   163.75    0.234   0.227   0.227   0.227   0.226   0.229   0.233   0.242   0.240   0.252   0.240   0.229   0.232   0.231   0.233   0.244   0.243   0.230   0.242   0.234   0.236   0.229   0.217   0.221   0.212   0.221   0.224   0.225   0.232   0.236   0.231   0.229   0.225   0.225   0.235
   159.10    0.232   0.223   0.227   0.229   0.231   0.230   0.236   0.235   0.242   0.246   0.244   0.235   0.226   0.231   0.237   0.241   0.250   0.246   0.229   0.237   0.233   0.225   0.225   0.224   0.217   0.210   0.231   0.235   0.235   0.240   0.223   0.220   0.221   0.219   0.219
   154.45    0.233   0.235   0.236   0.236   0.231   0.235   0.251   0.252   0.239   0.249   0.244   0.227   0.229   0.238   0.249   0.255   0.248   0.244   0.250   0.234   0.239   0.237   0.224   0.223   0.213   0.221   0.234   0.230   0.229   0.233   0.216   0.220   0.226   0.223   0.215
   149.80    0.236   0.239   0.231   0.238   0.238   0.258   0.248   0.257   0.257   0.248   0.236   0.240   0.239   0.244   0.257   0.250   0.253   0.253   0.254   0.245   0.250   0.235   0.230   0.228   0.226   0.230   0.223   0.226   0.222   0.226   0.220   0.211   0.219   0.227   0.222
   145.15    0.254   0.242   0.235   0.235   0.243   0.244   0.243   0.251   0.260   0.245   0.246   0.247   0.247   0.253   0.251   0.248   0.258   0.261   0.249   0.244   0.252   0.242   0.239   0.237   0.235   0.228   0.228   0.236   0.230   0.224   0.219   0.215   0.215   0.220   0.215
   140.50    0.259   0.251   0.260   0.257   0.238   0.239   0.252   0.247   0.254   0.266   0.257   0.248   0.252   0.258   0.257   0.261   0.251   0.256   0.238   0.252   0.247   0.234   0.231   0.231   0.241   0.229   0.239   0.240   0.236   0.225   0.221   0.221   0.208   0.221   0.207
   135.85    0.261   0.268   0.268   0.251   0.240   0.239   0.246   0.250   0.247   0.259   0.254   0.252   0.255   0.261   0.261   0.259   0.259   0.247   0.242   0.244   0.237   0.238   0.235   0.232   0.242   0.241   0.232   0.226   0.219   0.217   0.216   0.215   0.214   0.202   0.206
   131.20    0.246   0.258   0.263   0.252   0.239   0.226   0.238   0.233   0.239   0.249   0.259   0.263   0.272   0.267   0.265   0.254   0.249   0.239   0.245   0.243   0.249   0.246   0.239   0.237   0.235   0.230   0.227   0.222   0.209   0.206   0.215   0.212   0.207   0.197   0.204
   126.55    0.248   0.252   0.251   0.252   0.238   0.222   0.223   0.228   0.232   0.246   0.252   0.264   0.260   0.254   0.256   0.247   0.238   0.241   0.250   0.248   0.247   0.244   0.233   0.243   0.240   0.231   0.229   0.226   0.218   0.225   0.214   0.202   0.203   0.204   0.207
   121.90    0.260   0.241   0.238   0.232   0.227   0.219   0.226   0.222   0.219   0.230   0.248   0.256   0.257   0.250   0.249   0.240   0.244   0.263   0.252   0.249   0.239   0.234   0.232   0.232   0.233   0.228   0.226   0.213   0.229   0.220   0.215   0.206   0.217   0.207   0.205
   117.25    0.255   0.247   0.236   0.228   0.231   0.227   0.213   0.227   0.221   0.229   0.238   0.240   0.248   0.246   0.244   0.243   0.242   0.245   0.242   0.243   0.238   0.220   0.225   0.232   0.231   0.222   0.222   0.212   0.219   0.218   0.226   0.215   0.222   0.206   0.200
   112.60    0.253   0.255   0.238   0.242   0.239   0.215   0.215   0.221   0.226   0.234   0.243   0.235   0.238   0.236   0.232   0.233   0.230   0.233   0.233   0.237   0.242   0.221   0.216   0.220   0.220   0.217   0.220   0.215   0.223   0.230   0.230   0.222   0.220   0.212   0.207
   107.95    0.248   0.252   0.243   0.240   0.240   0.229   0.215   0.214   0.211   0.225   0.234   0.239   0.240   0.231   0.223   0.218   0.219   0.218   0.233   0.224   0.228   0.221   0.211   0.212   0.221   0.223   0.215   0.212   0.227   0.228   0.217   0.220   0.223   0.222   0.216
   103.30    0.255   0.251   0.237   0.244   0.242   0.232   0.224   0.225   0.215   0.226   0.229   0.231   0.237   0.229   0.212   0.214   0.207   0.228   0.229   0.222   0.221   0.228   0.220   0.222   0.217   0.216   0.226   0.227   0.225   0.222   0.215   0.226   0.224   0.219   0.208
    98.65    0.258   0.257   0.248   0.251   0.237   0.246   0.230   0.226   0.224   0.226   0.224   0.236   0.224   0.232   0.231   0.219   0.212   0.219   0.226   0.219   0.226   0.221   0.217   0.208   0.225   0.220   0.214   0.221   0.228   0.215   0.225   0.232   0.225   0.221   0.221
    94.00    0.241   0.252   0.247   0.243   0.252   0.242   0.243   0.239   0.221   0.225   0.223   0.222   0.231   0.231   0.240   0.239   0.219   0.235   0.233   0.229   0.225   0.218   0.225   0.227   0.231   0.223   0.216   0.224   0.233   0.220   0.233   0.234   0.229   0.235   0.240
    89.35    0.230   0.239   0.235   0.225   0.242   0.241   0.243   0.234   0.227   0.223   0.228   0.223   0.228   0.239   0.243   0.251   0.236   0.239   0.239   0.229   0.235   0.235   0.232   0.231   0.223   0.229   0.222   0.221   0.225   0.218   0.225   0.226   0.225   0.227   0.234
    84.70    0.219   0.238   0.232   0.218   0.231   0.233   0.245   0.240   0.235   0.223   0.227   0.227   0.223   0.236   0.236   0.237   0.246   0.248   0.240   0.239   0.227   0.227   0.227   0.227   0.228   0.229   0.224   0.220   0.221   0.232   0.220   0.227   0.229   0.218   0.237
    80.05    0.223   0.227   0.220   0.224   0.227   0.228   0.239   0.230   0.230   0.224   0.213   0.228   0.224   0.237   0.238   0.257   0.249   0.250   0.230   0.224   0.231   0.228   0.219   0.218   0.213   0.228   0.219   0.221   0.223   0.228   0.229   0.232   0.226   0.237   0.242
    75.40    0.217   0.227   0.226   0.232   0.218   0.221   0.236   0.234   0.221   0.225   0.221   0.219   0.233   0.235   0.242   0.247   0.246   0.231   0.230   0.225   0.227   0.229   0.224   0.216   0.215   0.212   0.220   0.218   0.228   0.228   0.232   0.229   0.223   0.224   0.229
    70.75    0.218   0.225   0.218   0.218   0.223   0.223   0.226   0.236   0.226   0.221   0.229   0.228   0.237   0.241   0.239   0.238   0.234   0.230   0.226   0.223   0.231   0.217   0.217   0.212   0.218   0.211   0.224   0.224   0.233   0.234   0.233   0.226   0.227   0.227   0.228
    66.10    0.215   0.215   0.217   0.222   0.217   0.220   0.223   0.220   0.227   0.226   0.217   0.227   0.242   0.239   0.239   0.236   0.236   0.235   0.237   0.225   0.235   0.223   0.219   0.215   0.205   0.215   0.225   0.235   0.240   0.232   0.221   0.214   0.218   0.216   0.223
    61.45    0.216   0.215   0.214   0.215   0.210   0.213   0.214   0.221   0.215   0.213   0.211   0.220   0.235   0.225   0.238   0.231   0.235   0.226   0.232   0.241   0.232   0.242   0.236   0.227   0.211   0.217   0.220   0.230   0.232   0.221   0.214   0.214   0.212   0.214   0.218
    56.80    0.226   0.222   0.220   0.212   0.205   0.213   0.216   0.217   0.210   0.212   0.220   0.222   0.227   0.221   0.228   0.225   0.225   0.225   0.226   0.236   0.238   0.238   0.223   0.224   0.226   0.232   0.222   0.237   0.224   0.215   0.209   0.210   0.217   0.220   0.223
    52.15    0.234   0.230   0.226   0.217   0.219   0.213   0.204   0.204   0.216   0.214   0.227   0.220   0.226   0.221   0.227   0.219   0.219   0.223   0.226   0.226   0.234   0.226   0.217   0.230   0.230   0.232   0.230   0.231   0.220   0.213   0.211   0.219   0.210   0.215   0.214
    47.50    0.251   0.239   0.229   0.225   0.218   0.216   0.210   0.212   0.216   0.218   0.232   0.231   0.235   0.232   0.220   0.230   0.232   0.230   0.215   0.218   0.225   0.222   0.215   0.221   0.232   0.221   0.238   0.224   0.226   0.223   0.228   0.206   0.211   0.218   0.216
    42.85    0.249   0.250   0.243   0.240   0.228   0.231   0.219   0.222   0.227   0.225   0.232   0.234   0.237   0.239   0.224   0.227   0.240   0.229   0.228   0.226   0.229   0.218   0.232   0.219   0.220   0.224   0.234   0.233   0.220   0.217   0.221   0.212   0.206   0.213   0.208
    38.20    0.250   0.247   0.236   0.244   0.228   0.222   0.223   0.216   0.229   0.229   0.222   0.233   0.235   0.240   0.238   0.224   0.229   0.232   0.231   0.235   0.237   0.225   0.218   0.218   0.205   0.211   0.226   0.234   0.225   0.220   0.213   0.206   0.210   0.218   0.222
    33.55    0.243   0.239   0.252   0.246   0.226   0.216   0.225   0.217   0.222   0.222   0.231   0.231   0.238   0.233   0.230   0.221   0.232   0.232   0.240   0.235   0.232   0.225   0.220   0.215   0.198   0.208   0.235   0.228   0.226   0.209   0.212   0.215   0.215   0.223   0.223
    28.90    0.224   0.237   0.243   0.240   0.220   0.220   0.214   0.226   0.229   0.229   0.219   0.229   0.238   0.240   0.239   0.232   0.229   0.235   0.232   0.227   0.232   0.231   0.225   0.222   0.206   0.219   0.236   0.245   0.225   0.218   0.211   0.208   0.212   0.223   0.222
    24.25    0.220   0.235   0.230   0.228   0.229   0.236   0.225   0.230   0.234   0.234   0.223   0.218   0.237   0.239   0.230   0.239   0.238   0.230   0.227   0.225   0.224   0.224   0.224   0.228   0.216   0.227   0.231   0.234   0.237   0.232   0.222   0.216   0.220   0.224   0.229
    19.60    0.217   0.227   0.228   0.210   0.228   0.227   0.236   0.232   0.239   0.226   0.233   0.224   0.231   0.230   0.235   0.233   0.240   0.236   0.225   0.222   0.218   0.216   0.217   0.220   0.216   0.213   0.231   0.227   0.239   0.239   0.231   0.224   0.218   0.219   0.225
    14.95    0.221   0.232   0.224   0.225   0.226   0.235   0.242   0.233   0.237   0.222   0.224   0.227   0.233   0.232   0.226   0.232   0.247   0.234   0.224   0.215   0.221   0.198   0.200   0.197   0.200   0.220   0.214   0.230   0.227   0.225   0.229   0.223   0.213   0.222   0.231
    10.30    0.226   0.224   0.228   0.233   0.242   0.239   0.245   0.238   0.242   0.228   0.222   0.222   0.227   0.227   0.226   0.228   0.246   0.228   0.215   0.220   0.219   0.204   0.192   0.201   0.208   0.207   0.211   0.234   0.225   0.221   0.217   0.222   0.228   0.229   0.238
     5.65    0.221   0.227   0.220   0.227   0.236   0.247   0.240   0.230   0.232   0.221   0.225   0.223   0.226   0.233   0.232   0.226   0.235   0.235   0.226   0.225   0.212   0.208   0.203   0.204   0.209   0.217   0.212   0.220   0.225   0.226   0.224   0.234   0.238   0.245   0.244
     1.00    0.226   0.219   0.228   0.221   0.228   0.237   0.227   0.222   0.225   0.221   0.222   0.228   0.228   0.233   0.227   0.218   0.216   0.233   0.222   0.223   0.216   0.204   0.202   0.216   0.209   0.219   0.228   0.224   0.232   0.237   0.232   0.243   0.243   0.242   0.239

   Height   Standard deviation at grid points for the w component:
   168.40    0.142   0.145   0.146   0.147   0.141   0.146   0.148   0.143   0.140   0.139   0.135   0.139   0.136   0.136   0.143   0.146   0.144   0.150   0.146   0.140   0.134   0.131   0.132   0.131   0.130   0.135   0.140   0.136   0.131   0.131   0.137   0.141   0.145   0.148   0.142
   163.75    0.142   0.147   0.140   0.147   0.142   0.144   0.143   0.134   0.132   0.135   0.134   0.140   0.138   0.135   0.136   0.142   0.149   0.144   0.143   0.138   0.136   0.128   0.129   0.135   0.132   0.135   0.139   0.139   0.133   0.129   0.138   0.143   0.144   0.148   0.146
   159.10    0.144   0.141   0.142   0.147   0.143   0.144   0.141   0.139   0.133   0.135   0.138   0.142   0.137   0.143   0.141   0.137   0.138   0.135   0.136   0.134   0.135   0.132   0.131   0.131   0.133   0.135   0.139   0.139   0.135   0.132   0.140   0.145   0.145   0.144   0.144
   154.45    0.137   0.142   0.138   0.142   0.142   0.141   0.135   0.132   0.132   0.136   0.134   0.138   0.136   0.135   0.137   0.137   0.133   0.130   0.135   0.135   0.136   0.134   0.131   0.129   0.132   0.135   0.142   0.138   0.138   0.137   0.135   0.141   0.139   0.140   0.147
   149.80    0.140   0.144   0.139   0.137   0.134   0.134   0.131   0.134   0.134   0.131   0.139   0.141   0.139   0.136   0.137   0.134   0.132   0.131   0.128   0.132   0.135   0.132   0.134   0.134   0.128   0.129   0.139   0.138   0.136   0.141   0.135   0.138   0.135   0.138   0.141
   145.15    0.138   0.138   0.142   0.137   0.137   0.131   0.125   0.133   0.133   0.134   0.138   0.142   0.142   0.139   0.134   0.133   0.135   0.133   0.131   0.135   0.134   0.134   0.133   0.129   0.125   0.122   0.132   0.134   0.135   0.134   0.137   0.137   0.133   0.133   0.140
   140.50    0.142   0.138   0.137   0.132   0.129   0.128   0.128   0.130   0.138   0.141   0.138   0.140   0.137   0.138   0.134   0.136   0.134   0.130   0.131   0.131   0.131   0.135   0.131   0.135   0.127   0.132   0.127   0.133   0.134   0.135   0.138   0.134   0.135   0.134   0.136
   135.85    0.141   0.138   0.132   0.131   0.125   0.128   0.132   0.137   0.140   0.145   0.140   0.142   0.140   0.139   0.134   0.133   0.132   0.130   0.133   0.132   0.131   0.136   0.134   0.132   0.128   0.129   0.127   0.131   0.128   0.130   0.134   0.134   0.135   0.134   0.133
   131.20    0.142   0.139   0.136   0.136   0.134   0.129   0.132   0.136   0.139   0.137   0.146   0.142   0.141   0.135   0.127   0.130   0.132   0.132   0.131   0.133   0.134   0.133   0.129   0.129   0.129   0.128   0.125   0.129   0.132   0.136   0.133   0.135   0.132   0.132   0.134
   126.55    0.141   0.136   0.136   0.136   0.134   0.132   0.133   0.134   0.135   0.134   0.138   0.140   0.143   0.136   0.131   0.133   0.134   0.133   0.134   0.137   0.136   0.131   0.130   0.130   0.129   0.128   0.129   0.134   0.135   0.135   0.133   0.129   0.130   0.134   0.133
   121.90    0.136   0.133   0.134   0.134   0.136   0.135   0.139   0.139   0.139   0.138   0.137   0.135   0.136   0.140   0.132   0.137   0.137   0.136   0.133   0.139   0.132   0.129   0.133   0.134   0.131   0.133   0.132   0.133   0.135   0.135   0.131   0.127   0.132   0.137   0.137
   117.25    0.134   0.135   0.134   0.136   0.139   0.142   0.140   0.138   0.139   0.132   0.136   0.133   0.136   0.135   0.137   0.135   0.135   0.139   0.134   0.133   0.139   0.135   0.131   0.129   0.137   0.136   0.133   0.136   0.140   0.138   0.131   0.130   0.128   0.133   0.134
   112.60    0.139   0.143   0.144   0.141   0.143   0.140   0.140   0.136   0.139   0.136   0.135   0.142   0.140   0.135   0.134   0.134   0.136   0.135   0.135   0.136   0.137   0.134   0.133   0.130   0.133   0.136   0.136   0.137   0.138   0.142   0.137   0.134   0.138   0.133   0.135
   107.95    0.148   0.150   0.156   0.150   0.148   0.148   0.142   0.141   0.140   0.133   0.136   0.141   0.133   0.135   0.135   0.137   0.136   0.135   0.136   0.140   0.138   0.135   0.134   0.126   0.129   0.138   0.140   0.135   0.140   0.142   0.140   0.141   0.141   0.137   0.136
   103.30    0.149   0.148   0.150   0.152   0.143   0.147   0.143   0.146   0.145   0.139   0.139   0.137   0.140   0.140   0.139   0.140   0.138   0.132   0.132   0.140   0.139   0.129   0.135   0.135   0.133   0.132   0.135   0.136   0.137   0.136   0.144   0.141   0.147   0.144   0.139
    98.65    0.145   0.145   0.144   0.150   0.148   0.146   0.145   0.145   0.143   0.145   0.142   0.140   0.136   0.139   0.136   0.134   0.134   0.135   0.135   0.134   0.136   0.128   0.129   0.131   0.133   0.131   0.132   0.134   0.132   0.141   0.145   0.141   0.144   0.143   0.138
    94.00    0.142   0.140   0.141   0.139   0.138   0.141   0.143   0.147   0.149   0.150   0.142   0.141   0.138   0.138   0.136   0.133   0.135   0.137   0.139   0.138   0.138   0.137   0.133   0.137   0.140   0.138   0.137   0.138   0.142   0.138   0.145   0.142   0.140   0.140   0.134
    89.35    0.143   0.143   0.140   0.134   0.139   0.142   0.143   0.151   0.147   0.147   0.143   0.138   0.142   0.138   0.133   0.136   0.138   0.139   0.140   0.143   0.139   0.138   0.143   0.139   0.137   0.138   0.139   0.138   0.141   0.138   0.143   0.149   0.145   0.138   0.142
    84.70    0.146   0.144   0.141   0.138   0.143   0.143   0.146   0.152   0.151   0.150   0.147   0.146   0.144   0.144   0.138   0.135   0.133   0.130   0.142   0.146   0.143   0.142   0.142   0.146   0.143   0.152   0.141   0.139   0.136   0.140   0.143   0.147   0.146   0.144   0.140
    80.05    0.142   0.144   0.141   0.139   0.149   0.154   0.144   0.148   0.150   0.147   0.148   0.148   0.146   0.142   0.138   0.142   0.137   0.138   0.139   0.146   0.144   0.142   0.144   0.144   0.150   0.149   0.147   0.144   0.144   0.142   0.140   0.143   0.145   0.145   0.145
    75.40    0.143   0.141   0.141   0.145   0.149   0.158   0.149   0.151   0.151   0.144   0.145   0.144   0.146   0.149   0.146   0.148   0.145   0.145   0.141   0.142   0.145   0.146   0.151   0.151   0.145   0.144   0.148   0.149   0.143   0.142   0.146   0.140   0.142   0.142   0.139
    70.75    0.140   0.147   0.145   0.148   0.150   0.158   0.156   0.149   0.150   0.150   0.147   0.145   0.147   0.146   0.147   0.153   0.145   0.143   0.144   0.143   0.142   0.145   0.145   0.146   0.148   0.144   0.144   0.147   0.145   0.143   0.146   0.139   0.142   0.144   0.132
    66.10    0.140   0.147   0.150   0.155   0.154   0.156   0.152   0.150   0.146   0.149   0.146   0.150   0.149   0.147   0.148   0.140   0.139   0.143   0.141   0.145   0.143   0.145   0.148   0.145   0.148   0.145   0.143   0.143   0.145   0.144   0.149   0.146   0.145   0.143   0.135
    61.45    0.145   0.145   0.150   0.156   0.152   0.152   0.154   0.156   0.154   0.151   0.148   0.148   0.145   0.145   0.147   0.142   0.142   0.142   0.141   0.140   0.141   0.142   0.142   0.142   0.136   0.141   0.147   0.141   0.138   0.145   0.152   0.148   0.141   0.141   0.136
    56.80    0.141   0.148   0.152   0.155   0.152   0.150   0.152   0.157   0.153   0.154   0.152   0.148   0.147   0.151   0.144   0.142   0.139   0.136   0.146   0.139   0.138   0.139   0.140   0.137   0.132   0.138   0.138   0.147   0.146   0.147   0.150   0.144   0.137   0.141   0.136
    52.15    0.148   0.151   0.154   0.151   0.151   0.157   0.155   0.155   0.155   0.154   0.157   0.152   0.152   0.151   0.147   0.140   0.134   0.140   0.145   0.142   0.135   0.139   0.132   0.136   0.136   0.147   0.142   0.145   0.146   0.146   0.146   0.145   0.137   0.137   0.139
    47.50    0.148   0.151   0.155   0.148   0.142   0.149   0.150   0.151   0.150   0.149   0.153   0.150   0.144   0.150   0.149   0.143   0.143   0.141   0.142   0.143   0.142   0.140   0.136   0.134   0.141   0.146   0.144   0.147   0.144   0.140   0.147   0.142   0.135   0.140   0.141
    42.85    0.143   0.152   0.149   0.147   0.153   0.145   0.149   0.151   0.149   0.148   0.146   0.145   0.146   0.147   0.139   0.142   0.141   0.141   0.141   0.140   0.140   0.141   0.136   0.139   0.144   0.143   0.145   0.146   0.142   0.141   0.144   0.140   0.141   0.138   0.142
    38.20    0.151   0.150   0.148   0.148   0.149   0.146   0.146   0.147   0.148   0.147   0.143   0.147   0.146   0.140   0.134   0.139   0.141   0.137   0.136   0.136   0.137   0.136   0.142   0.143   0.147   0.149   0.145   0.145   0.140   0.140   0.142   0.138   0.134   0.137   0.138
    33.55    0.143   0.145   0.146   0.147   0.143   0.143   0.152   0.154   0.146   0.146   0.143   0.143   0.143   0.141   0.136   0.134   0.141   0.137   0.136   0.140   0.143   0.136   0.140   0.139   0.140   0.143   0.140   0.143   0.137   0.140   0.141   0.145   0.137   0.140   0.139
    28.90    0.143   0.145   0.146   0.149   0.142   0.140   0.142   0.145   0.150   0.146   0.150   0.153   0.150   0.145   0.139   0.134   0.138   0.131   0.138   0.137   0.139   0.142   0.139   0.141   0.139   0.141   0.145   0.143   0.142   0.141   0.142   0.139   0.141   0.139   0.139
    24.25    0.142   0.144   0.146   0.144   0.140   0.143   0.138   0.143   0.149   0.154   0.149   0.146   0.150   0.152   0.144   0.141   0.133   0.130   0.134   0.136   0.137   0.135   0.138   0.137   0.136   0.140   0.142   0.143   0.144   0.142   0.143   0.147   0.143   0.140   0.141
    19.60    0.137   0.141   0.140   0.142   0.144   0.140   0.141   0.142   0.144   0.146   0.146   0.150   0.145   0.143   0.139   0.138   0.137   0.132   0.129   0.135   0.136   0.136   0.135   0.138   0.134   0.139   0.142   0.143   0.142   0.143   0.147   0.144   0.144   0.142   0.139
    14.95    0.139   0.140   0.137   0.139   0.140   0.143   0.139   0.140   0.143   0.142   0.149   0.149   0.140   0.139   0.140   0.134   0.132   0.136   0.132   0.131   0.138   0.133   0.137   0.134   0.137   0.138   0.138   0.143   0.141   0.142   0.143   0.144   0.142   0.141   0.140
    10.30    0.140   0.137   0.137   0.137   0.143   0.143   0.141   0.144   0.140   0.140   0.142   0.136   0.137   0.137   0.137   0.131   0.132   0.133   0.135   0.134   0.134   0.137   0.135   0.137   0.133   0.139   0.140   0.138   0.142   0.139   0.136   0.143   0.141   0.134   0.140
     5.65    0.138   0.134   0.133   0.137   0.144   0.140   0.139   0.140   0.136   0.142   0.137   0.137   0.137   0.129   0.134   0.130   0.131   0.133   0.135   0.131   0.132   0.134   0.133   0.130   0.134   0.138   0.138   0.139   0.136   0.134   0.134   0.135   0.137   0.133   0.135
     1.00    0.139   0.139   0.136   0.138   0.144   0.142   0.141   0.139   0.133   0.137   0.140   0.135   0.133   0.131   0.133   0.134   0.131   0.130   0.136   0.131   0.135   0.135   0.129   0.134   0.131   0.135   0.134   0.138   0.133   0.134   0.133   0.133   0.137   0.134   0.133

   Mean standard deviation across all grid points:
      u component:    0.267 m/s
      v component:    0.229 m/s
      w component:    0.140 m/s


U-component (X) statistics from the interpolated hub point:

   Mean =   9.9913 m/s
   TI   =   2.8102 %


Processing complete.  6124.2 CPU seconds used.
