
This summary file was generated by TurbSim (from OpenFAST-v3.5.3) on 20-Apr-2025 at 12:16:57.


Runtime Options:

 376932526  Random seed #1
    RANLUX  Type of random number generator
         F  Output binary HH turbulence parameters?
         F  Output formatted turbulence parameters?
         F  Output AeroDyn HH files?
         T  Output AeroDyn FF files?
         F  Output BLADED FF files?
         F  Output tower data?
         F  Output HAWC FF files?
         F  Output formatted FF files?
         T  Output coherent turbulence time step file?
 0 -  NONE  IEC turbulence models scaled to exact specified standard deviation


Turbine/Model Specifications:

        37  Vertical grid-point matrix dimension
        35  Horizontal grid-point matrix dimension
     0.250  Time step [seconds]
   900.000  Analysis time [seconds]
   900.000  Usable output time [seconds]
    89.350  Hub height [m]
   167.400  Grid height [m]
   158.100  Grid width [m]
     0.000  Vertical flow angle [degrees]
     0.000  Horizontal flow angle [degrees]


Meteorological Boundary Conditions:

    TIMESR  User-input time series spectral model
       N/A  IEC standard
       N/A  IEC turbulence characteristic
       N/A  IEC turbulence type
       N/A  IEC Extreme Turbulence Model (ETM) "c" parameter [m/s]
       PL   Wind profile type
    90.000  Reference height [m]
    10.000  Reference wind speed [m/s]
       N/A  Jet height [m]
     0.120  Power law exponent
     0.030  Surface roughness length [m]


Non-IEC Meteorological Boundary Conditions:

    45.000  Site latitude [degrees]
     0.050  Gradient Richardson number
     0.480  Friction or shear velocity [m/s]
       N/A  Mixing layer depth [m]
       N/A  Mean hub u'w' Reynolds stress
       N/A  Mean hub u'v' Reynolds stress
       N/A  Mean hub v'w' Reynolds stress


Spatial Coherence Models:

       IEC  u-component coherence model
       IEC  v-component coherence model
       IEC  w-component coherence model
(   12.000, 0.353E-03)  u-component coherence parameters
(   12.000, 0.353E-03)  v-component coherence parameters
(   12.000, 0.353E-03)  w-component coherence parameters
       N/A  Coherence exponent


Coherent Turbulence Scaling Parameters:

.\EventData
            Name of the path containing the coherent turbulence data files
       les  Type of coherent turbulence data files
     1.000  Disturbance scale (ratio of wave height to rotor diameter)
     0.500  Fractional location of tower centerline from right
     0.500  Fractional location of hub height from the bottom of the dataset
    30.000  Minimum start time for coherent structures [seconds]


Profiles from User-Defined Time-Series Input:

  Height   Wind Speed   Horizontal Angle   Vertical Angle
   (m)        (m/s)          (deg)              (deg)    
  ------   ----------   ----------------   --------------
   94.00      10.00          -0.63               -0.00


You have requested that the following file(s) be generated:

   /kfs3/scratch/agupta/Projects/RL_Incubator/FinalRuns_Veer/Seed4/./FFSim_Seed4/Cond00_v10.0_PL0.12_TI4.0/Case3_wdirp06/Seed_6/TurbSim/HighT7.bts (AeroDyn/TurbSim full-field wind file)


Turbulence Simulation Scaling Parameter Summary:

   Turbulence model used                            =  User-input time series
   Gradient Richardson number                       =    0.050
   Monin-Obukhov (M-O) z/L parameter                =    0.067
   Monin-Obukhov (M-O) length scale                 = 1340.250 m
   Mean wind speed at hub height                    =    9.991 m/s

   Wind profile type                                =  Power law
   Power law exponent                               =    0.120
   Mean shear across rotor disk                     =    0.019 (m/s)/m
   Assumed rotor diameter                           =  158.100 m
   Surface roughness length                         =    0.030 m

   Nyquist frequency of turbulent wind field        =    2.000 Hz

   Number of time steps in the FFT                  =     3600
   Number of time steps output                      =     3600
   Number of points simulated                       =     1296


Mean Flow Angles:

   Vertical   =   0.0 degrees
   Horizontal =   0.0 degrees

Mean Wind Speed Profile:

   Height    Wind Speed   Horizontal Angle  Vertical Angle  U-comp (X)   V-comp (Y)   W-comp (Z)
     (m)        (m/s)         (degrees)       (degrees)       (m/s)        (m/s)        (m/s)   
   ------    ----------   ----------------  --------------  ----------   ----------   ----------
    168.4       10.78            0.00            0.00         10.78         0.00         0.00
    163.7       10.74            0.00            0.00         10.74         0.00         0.00
    159.1       10.71            0.00            0.00         10.71         0.00         0.00
    154.4       10.67            0.00            0.00         10.67         0.00         0.00
    149.8       10.63            0.00            0.00         10.63         0.00         0.00
    145.1       10.59            0.00            0.00         10.59         0.00         0.00
    140.5       10.55            0.00            0.00         10.55         0.00         0.00
    135.8       10.51            0.00            0.00         10.51         0.00         0.00
    131.2       10.46            0.00            0.00         10.46         0.00         0.00
    126.5       10.42            0.00            0.00         10.42         0.00         0.00
    121.9       10.37            0.00            0.00         10.37         0.00         0.00
    117.2       10.32            0.00            0.00         10.32         0.00         0.00
    112.6       10.27            0.00            0.00         10.27         0.00         0.00
    107.9       10.22            0.00            0.00         10.22         0.00         0.00
    103.3       10.17            0.00            0.00         10.17         0.00         0.00
     98.6       10.11            0.00            0.00         10.11         0.00         0.00
     94.0       10.05            0.00            0.00         10.05         0.00         0.00
     89.3        9.99            0.00            0.00          9.99         0.00         0.00
     84.7        9.93            0.00            0.00          9.93         0.00         0.00
     80.0        9.86            0.00            0.00          9.86         0.00         0.00
     75.4        9.79            0.00            0.00          9.79         0.00         0.00
     70.7        9.72            0.00            0.00          9.72         0.00         0.00
     66.1        9.64            0.00            0.00          9.64         0.00         0.00
     61.4        9.55            0.00            0.00          9.55         0.00         0.00
     56.8        9.46            0.00            0.00          9.46         0.00         0.00
     52.1        9.37            0.00            0.00          9.37         0.00         0.00
     47.5        9.26            0.00            0.00          9.26         0.00         0.00
     42.8        9.15            0.00            0.00          9.15         0.00         0.00
     38.2        9.02            0.00            0.00          9.02         0.00         0.00
     33.5        8.88            0.00            0.00          8.88         0.00         0.00
     28.9        8.73            0.00            0.00          8.73         0.00         0.00
     24.2        8.54            0.00            0.00          8.54         0.00         0.00
     19.6        8.33            0.00            0.00          8.33         0.00         0.00
     14.9        8.06            0.00            0.00          8.06         0.00         0.00
     10.3        7.71            0.00            0.00          7.71         0.00         0.00
      5.6        7.17            0.00            0.00          7.17         0.00         0.00
      1.0        5.83            0.00            0.00          5.83         0.00         0.00


Harvested Random Seeds after Generation of the Random Numbers:

     65026800 K 1
            0 K 2


Hub-Height Simulated Turbulence Statistical Summary:

   Type of Wind        Min (m/s)   Mean (m/s)    Max (m/s)  Sigma (m/s)       TI (%)
   ----------------    ---------   ----------    ---------  -----------       ------
   Longitudinal (u)         9.00         9.99        11.14        0.336        3.365
   Lateral (v)             -1.07         0.00         0.94        0.308        3.085
   Vertical (w)            -0.61         0.00         0.74        0.191        1.913
   U component              9.00         9.99        11.14        0.336        3.365
   V component             -1.07         0.00         0.94        0.308        3.085
   W component             -0.61         0.00         0.74        0.191        1.913
   Horizontal (U&V)         9.01        10.00        11.14        0.336        3.366
   Total                    9.01        10.00        11.14        0.337        3.366

                       Min Reynolds     Mean Reynolds    Max Reynolds    Correlation
   Product             Stress (m/s)^2   Stress (m/s)^2   Stress (m/s)^2  Coefficient
   ----------------    --------------   --------------   --------------  -----------
   u'w'                     -0.407            -0.004             0.306        -0.065
   u'v'                     -0.477             0.001             0.532         0.008
   v'w'                     -0.395             0.002             0.322         0.028


   Friction Velocity (Ustar)  =      0.065 m/s
   Maximum Instantaneous TKE  =      0.713 (m/s)^2
   Maximum Instantaneous CTKE =      0.291 (m/s)^2


Grid Point Variance Summary:

   Y-coord  -79.05  -74.40  -69.75  -65.10  -60.45  -55.80  -51.15  -46.50  -41.85  -37.20  -32.55  -27.90  -23.25  -18.60  -13.95   -9.30   -4.65    0.00    4.65    9.30   13.95   18.60   23.25   27.90   32.55   37.20   41.85   46.50   51.15   55.80   60.45   65.10   69.75   74.40   79.05

   Height   Standard deviation at grid points for the u component:
   168.40    0.316   0.300   0.323   0.313   0.313   0.328   0.345   0.344   0.333   0.332   0.331   0.321   0.318   0.323   0.317   0.286   0.312   0.308   0.323   0.331   0.329   0.315   0.323   0.362   0.337   0.332   0.338   0.340   0.338   0.327   0.315   0.295   0.297   0.288   0.285
   163.75    0.319   0.314   0.329   0.328   0.333   0.336   0.330   0.314   0.322   0.320   0.330   0.323   0.346   0.328   0.315   0.300   0.287   0.303   0.315   0.319   0.314   0.311   0.336   0.353   0.348   0.323   0.350   0.350   0.339   0.319   0.315   0.323   0.302   0.293   0.291
   159.10    0.323   0.320   0.321   0.327   0.339   0.350   0.324   0.337   0.345   0.319   0.324   0.327   0.338   0.329   0.308   0.296   0.288   0.312   0.315   0.294   0.291   0.306   0.339   0.339   0.353   0.341   0.350   0.364   0.340   0.318   0.309   0.320   0.313   0.321   0.311
   154.45    0.309   0.312   0.302   0.304   0.321   0.332   0.325   0.317   0.335   0.304   0.306   0.318   0.312   0.317   0.308   0.332   0.315   0.301   0.296   0.287   0.292   0.299   0.323   0.321   0.342   0.345   0.335   0.357   0.333   0.319   0.314   0.305   0.311   0.304   0.300
   149.80    0.311   0.301   0.297   0.304   0.308   0.328   0.334   0.325   0.333   0.317   0.326   0.309   0.335   0.322   0.309   0.293   0.310   0.291   0.297   0.276   0.293   0.301   0.309   0.327   0.344   0.343   0.327   0.332   0.347   0.318   0.317   0.314   0.321   0.305   0.283
   145.15    0.290   0.295   0.290   0.312   0.325   0.346   0.342   0.321   0.314   0.316   0.322   0.321   0.320   0.324   0.302   0.320   0.293   0.296   0.306   0.291   0.292   0.278   0.306   0.331   0.345   0.352   0.343   0.344   0.336   0.333   0.326   0.310   0.320   0.323   0.290
   140.50    0.285   0.282   0.298   0.312   0.326   0.346   0.332   0.322   0.329   0.322   0.304   0.322   0.320   0.315   0.321   0.308   0.294   0.304   0.328   0.321   0.313   0.292   0.299   0.309   0.353   0.362   0.351   0.347   0.327   0.328   0.334   0.321   0.320   0.301   0.310
   135.85    0.293   0.294   0.293   0.293   0.321   0.338   0.337   0.322   0.313   0.293   0.313   0.308   0.306   0.322   0.326   0.305   0.306   0.305   0.315   0.335   0.332   0.321   0.330   0.333   0.354   0.349   0.347   0.344   0.340   0.338   0.336   0.325   0.329   0.311   0.294
   131.20    0.299   0.310   0.299   0.295   0.303   0.316   0.325   0.319   0.320   0.305   0.309   0.308   0.317   0.318   0.320   0.322   0.305   0.325   0.309   0.323   0.334   0.325   0.341   0.344   0.351   0.348   0.343   0.331   0.324   0.340   0.334   0.327   0.338   0.342   0.312
   126.55    0.326   0.300   0.288   0.316   0.317   0.310   0.310   0.322   0.319   0.298   0.311   0.311   0.308   0.320   0.302   0.313   0.300   0.303   0.309   0.306   0.318   0.338   0.354   0.364   0.359   0.340   0.337   0.342   0.335   0.341   0.331   0.327   0.331   0.344   0.317
   121.90    0.372   0.342   0.325   0.317   0.332   0.325   0.325   0.330   0.342   0.312   0.321   0.322   0.323   0.305   0.301   0.307   0.321   0.317   0.328   0.317   0.316   0.315   0.336   0.364   0.360   0.353   0.337   0.340   0.335   0.346   0.350   0.355   0.322   0.341   0.327
   117.25    0.348   0.328   0.337   0.337   0.327   0.343   0.336   0.355   0.350   0.321   0.327   0.336   0.322   0.311   0.304   0.320   0.316   0.308   0.294   0.301   0.316   0.327   0.331   0.358   0.348   0.361   0.319   0.360   0.352   0.368   0.362   0.367   0.358   0.365   0.332
   112.60    0.330   0.319   0.336   0.328   0.349   0.357   0.374   0.360   0.338   0.309   0.331   0.323   0.312   0.310   0.319   0.330   0.331   0.306   0.307   0.289   0.313   0.307   0.342   0.352   0.358   0.377   0.335   0.358   0.349   0.383   0.365   0.367   0.361   0.360   0.338
   107.95    0.336   0.312   0.328   0.326   0.346   0.356   0.379   0.367   0.327   0.332   0.319   0.312   0.305   0.326   0.336   0.336   0.339   0.312   0.307   0.304   0.324   0.315   0.324   0.343   0.352   0.365   0.388   0.352   0.372   0.384   0.354   0.351   0.360   0.354   0.317
   103.30    0.320   0.338   0.329   0.327   0.335   0.360   0.363   0.348   0.325   0.318   0.320   0.309   0.330   0.337   0.322   0.346   0.332   0.322   0.315   0.316   0.322   0.313   0.314   0.315   0.342   0.368   0.363   0.366   0.393   0.377   0.355   0.343   0.350   0.341   0.329
    98.65    0.338   0.330   0.319   0.323   0.363   0.362   0.349   0.356   0.347   0.343   0.328   0.332   0.349   0.349   0.331   0.349   0.356   0.340   0.338   0.330   0.319   0.336   0.323   0.335   0.330   0.359   0.367   0.372   0.370   0.366   0.352   0.358   0.323   0.300   0.320
    94.00    0.334   0.316   0.316   0.325   0.366   0.340   0.348   0.347   0.358   0.337   0.346   0.367   0.345   0.322   0.329   0.342   0.353   0.353   0.349   0.301   0.327   0.310   0.337   0.343   0.364   0.360   0.369   0.368   0.348   0.352   0.350   0.335   0.309   0.308   0.319
    89.35    0.316   0.311   0.308   0.319   0.336   0.321   0.336   0.355   0.349   0.337   0.343   0.344   0.331   0.311   0.332   0.341   0.327   0.336   0.339   0.315   0.325   0.339   0.340   0.354   0.370   0.364   0.370   0.349   0.357   0.382   0.364   0.364   0.333   0.333   0.336
    84.70    0.314   0.296   0.311   0.309   0.316   0.318   0.329   0.338   0.339   0.314   0.320   0.319   0.315   0.302   0.316   0.320   0.333   0.322   0.319   0.308   0.343   0.356   0.338   0.331   0.361   0.356   0.354   0.362   0.343   0.354   0.360   0.343   0.344   0.326   0.307
    80.05    0.300   0.305   0.314   0.347   0.327   0.322   0.318   0.310   0.320   0.323   0.306   0.312   0.303   0.312   0.329   0.322   0.321   0.323   0.316   0.333   0.338   0.334   0.325   0.334   0.346   0.360   0.359   0.367   0.351   0.351   0.350   0.340   0.315   0.311   0.305
    75.40    0.297   0.307   0.339   0.347   0.332   0.302   0.316   0.312   0.314   0.312   0.292   0.318   0.326   0.316   0.335   0.335   0.311   0.314   0.326   0.338   0.314   0.341   0.346   0.341   0.360   0.376   0.376   0.361   0.350   0.351   0.361   0.339   0.318   0.299   0.295
    70.75    0.350   0.339   0.334   0.324   0.322   0.316   0.325   0.311   0.309   0.305   0.300   0.309   0.333   0.338   0.328   0.317   0.332   0.336   0.331   0.333   0.341   0.347   0.349   0.335   0.358   0.383   0.388   0.356   0.340   0.363   0.371   0.340   0.332   0.317   0.297
    66.10    0.346   0.339   0.333   0.321   0.319   0.319   0.322   0.304   0.299   0.290   0.295   0.305   0.321   0.342   0.325   0.327   0.363   0.372   0.375   0.341   0.351   0.370   0.355   0.349   0.359   0.365   0.374   0.377   0.357   0.405   0.387   0.359   0.328   0.333   0.326
    61.45    0.331   0.337   0.347   0.331   0.328   0.314   0.323   0.300   0.290   0.290   0.311   0.325   0.342   0.350   0.360   0.338   0.353   0.360   0.382   0.369   0.353   0.372   0.367   0.358   0.362   0.369   0.365   0.377   0.371   0.368   0.397   0.383   0.374   0.370   0.346
    56.80    0.328   0.330   0.325   0.318   0.325   0.308   0.307   0.314   0.314   0.322   0.320   0.300   0.325   0.322   0.354   0.339   0.335   0.369   0.380   0.373   0.365   0.380   0.398   0.405   0.390   0.371   0.389   0.376   0.382   0.363   0.383   0.390   0.370   0.357   0.358
    52.15    0.320   0.335   0.327   0.329   0.332   0.317   0.333   0.318   0.322   0.320   0.334   0.317   0.319   0.327   0.343   0.339   0.353   0.366   0.363   0.360   0.352   0.371   0.393   0.389   0.375   0.372   0.366   0.365   0.359   0.354   0.370   0.383   0.363   0.352   0.341
    47.50    0.340   0.322   0.318   0.329   0.337   0.333   0.334   0.327   0.311   0.317   0.325   0.317   0.312   0.339   0.328   0.330   0.352   0.370   0.372   0.355   0.343   0.364   0.371   0.374   0.367   0.356   0.358   0.367   0.342   0.339   0.378   0.366   0.351   0.355   0.336
    42.85    0.346   0.343   0.344   0.321   0.332   0.307   0.316   0.323   0.330   0.301   0.298   0.313   0.305   0.308   0.308   0.323   0.354   0.385   0.375   0.374   0.360   0.351   0.360   0.386   0.382   0.356   0.354   0.375   0.351   0.345   0.377   0.358   0.360   0.338   0.335
    38.20    0.349   0.348   0.362   0.340   0.307   0.302   0.318   0.318   0.312   0.287   0.298   0.294   0.307   0.302   0.304   0.316   0.351   0.356   0.364   0.357   0.361   0.379   0.374   0.376   0.372   0.393   0.366   0.361   0.376   0.376   0.364   0.340   0.333   0.337   0.330
    33.55    0.346   0.363   0.344   0.343   0.324   0.335   0.318   0.315   0.324   0.292   0.295   0.294   0.306   0.308   0.310   0.320   0.339   0.350   0.324   0.336   0.347   0.356   0.347   0.340   0.360   0.365   0.371   0.362   0.368   0.382   0.361   0.349   0.329   0.321   0.314
    28.90    0.335   0.337   0.317   0.326   0.330   0.325   0.319   0.306   0.295   0.315   0.305   0.301   0.321   0.313   0.330   0.321   0.337   0.329   0.314   0.317   0.341   0.346   0.328   0.342   0.323   0.350   0.356   0.359   0.381   0.382   0.363   0.332   0.314   0.322   0.304
    24.25    0.336   0.336   0.332   0.331   0.338   0.330   0.329   0.310   0.300   0.302   0.284   0.290   0.311   0.317   0.330   0.316   0.321   0.322   0.306   0.329   0.320   0.348   0.336   0.335   0.350   0.345   0.345   0.340   0.339   0.381   0.361   0.329   0.319   0.317   0.300
    19.60    0.336   0.337   0.335   0.314   0.326   0.316   0.325   0.328   0.305   0.320   0.303   0.310   0.310   0.346   0.328   0.306   0.324   0.332   0.311   0.338   0.341   0.350   0.353   0.352   0.366   0.344   0.339   0.342   0.338   0.364   0.362   0.332   0.329   0.336   0.325
    14.95    0.360   0.333   0.310   0.303   0.331   0.309   0.330   0.317   0.323   0.313   0.308   0.313   0.348   0.328   0.315   0.307   0.316   0.318   0.334   0.336   0.340   0.337   0.347   0.348   0.363   0.355   0.363   0.345   0.347   0.353   0.342   0.309   0.310   0.314   0.305
    10.30    0.361   0.341   0.325   0.330   0.331   0.317   0.305   0.303   0.315   0.300   0.307   0.332   0.340   0.337   0.333   0.316   0.321   0.319   0.333   0.332   0.341   0.334   0.338   0.343   0.332   0.353   0.338   0.336   0.336   0.351   0.324   0.305   0.294   0.294   0.286
     5.65    0.380   0.349   0.330   0.299   0.319   0.313   0.295   0.322   0.295   0.284   0.309   0.329   0.330   0.336   0.314   0.314   0.303   0.309   0.319   0.314   0.325   0.327   0.315   0.316   0.320   0.330   0.336   0.339   0.337   0.354   0.348   0.316   0.287   0.299   0.291
     1.00    0.369   0.351   0.345   0.334   0.309   0.324   0.328   0.327   0.314   0.302   0.294   0.304   0.315   0.318   0.306   0.299   0.303   0.298   0.318   0.311   0.303   0.328   0.321   0.312   0.320   0.322   0.319   0.324   0.334   0.338   0.344   0.329   0.308   0.293   0.302

   Height   Standard deviation at grid points for the v component:
   168.40    0.343   0.338   0.339   0.339   0.331   0.343   0.355   0.354   0.339   0.327   0.307   0.302   0.288   0.302   0.313   0.317   0.283   0.274   0.294   0.301   0.320   0.301   0.302   0.308   0.315   0.302   0.285   0.286   0.292   0.317   0.310   0.319   0.317   0.339   0.323
   163.75    0.349   0.348   0.326   0.332   0.337   0.334   0.348   0.347   0.344   0.327   0.307   0.305   0.290   0.321   0.322   0.293   0.276   0.275   0.277   0.302   0.315   0.301   0.305   0.307   0.295   0.299   0.298   0.303   0.304   0.292   0.300   0.308   0.311   0.318   0.318
   159.10    0.345   0.349   0.321   0.312   0.322   0.306   0.320   0.333   0.322   0.310   0.306   0.302   0.307   0.304   0.309   0.297   0.286   0.275   0.279   0.296   0.301   0.305   0.306   0.327   0.319   0.302   0.293   0.298   0.296   0.288   0.298   0.303   0.330   0.335   0.333
   154.45    0.329   0.335   0.313   0.333   0.334   0.312   0.313   0.320   0.307   0.304   0.291   0.285   0.307   0.322   0.293   0.287   0.286   0.271   0.264   0.277   0.289   0.301   0.298   0.309   0.322   0.330   0.311   0.309   0.302   0.303   0.280   0.280   0.308   0.311   0.313
   149.80    0.312   0.312   0.330   0.328   0.311   0.328   0.321   0.328   0.304   0.301   0.301   0.296   0.290   0.302   0.282   0.280   0.272   0.257   0.275   0.283   0.289   0.294   0.310   0.328   0.322   0.331   0.318   0.311   0.296   0.297   0.279   0.281   0.284   0.301   0.290
   145.15    0.327   0.319   0.319   0.313   0.303   0.309   0.310   0.327   0.314   0.295   0.294   0.297   0.289   0.284   0.282   0.283   0.268   0.277   0.270   0.284   0.278   0.290   0.305   0.302   0.294   0.307   0.305   0.308   0.322   0.310   0.292   0.285   0.287   0.287   0.295
   140.50    0.351   0.329   0.346   0.312   0.291   0.287   0.310   0.316   0.329   0.311   0.297   0.291   0.278   0.285   0.293   0.279   0.280   0.277   0.271   0.287   0.285   0.287   0.295   0.309   0.316   0.293   0.295   0.294   0.301   0.310   0.301   0.287   0.302   0.309   0.290
   135.85    0.345   0.353   0.331   0.307   0.304   0.309   0.305   0.333   0.313   0.314   0.299   0.285   0.294   0.276   0.290   0.284   0.288   0.286   0.261   0.276   0.296   0.307   0.305   0.301   0.309   0.309   0.298   0.302   0.301   0.324   0.310   0.294   0.298   0.310   0.306
   131.20    0.333   0.317   0.335   0.314   0.309   0.310   0.307   0.313   0.296   0.290   0.278   0.281   0.296   0.291   0.289   0.282   0.297   0.286   0.288   0.288   0.294   0.315   0.317   0.328   0.340   0.322   0.311   0.309   0.320   0.320   0.322   0.305   0.299   0.294   0.301
   126.55    0.316   0.328   0.334   0.316   0.316   0.312   0.304   0.295   0.293   0.292   0.282   0.280   0.284   0.299   0.284   0.269   0.277   0.296   0.306   0.300   0.315   0.327   0.325   0.336   0.333   0.334   0.326   0.340   0.313   0.301   0.311   0.301   0.300   0.282   0.277
   121.90    0.314   0.322   0.321   0.324   0.322   0.321   0.323   0.309   0.296   0.297   0.288   0.277   0.261   0.282   0.287   0.276   0.275   0.282   0.302   0.313   0.320   0.317   0.335   0.344   0.329   0.340   0.323   0.331   0.309   0.285   0.295   0.289   0.278   0.274   0.264
   117.25    0.317   0.314   0.321   0.302   0.326   0.310   0.318   0.317   0.301   0.280   0.285   0.294   0.288   0.294   0.292   0.282   0.290   0.284   0.312   0.325   0.308   0.318   0.326   0.339   0.354   0.348   0.333   0.323   0.318   0.296   0.278   0.275   0.261   0.262   0.268
   112.60    0.312   0.301   0.322   0.318   0.312   0.315   0.305   0.309   0.304   0.282   0.288   0.290   0.286   0.294   0.294   0.287   0.280   0.299   0.315   0.328   0.316   0.315   0.308   0.331   0.338   0.333   0.339   0.328   0.318   0.298   0.275   0.278   0.285   0.275   0.270
   107.95    0.352   0.330   0.323   0.330   0.314   0.317   0.300   0.294   0.304   0.286   0.281   0.301   0.296   0.301   0.298   0.283   0.290   0.296   0.319   0.315   0.329   0.310   0.315   0.320   0.335   0.331   0.338   0.337   0.325   0.311   0.289   0.280   0.284   0.279   0.281
   103.30    0.330   0.328   0.317   0.319   0.315   0.301   0.285   0.284   0.289   0.298   0.288   0.287   0.300   0.291   0.293   0.281   0.299   0.313   0.321   0.333   0.320   0.318   0.317   0.324   0.329   0.341   0.354   0.342   0.325   0.308   0.297   0.296   0.290   0.292   0.297
    98.65    0.316   0.330   0.309   0.325   0.303   0.308   0.306   0.289   0.297   0.289   0.283   0.290   0.299   0.293   0.286   0.297   0.319   0.310   0.316   0.314   0.313   0.336   0.323   0.323   0.333   0.342   0.338   0.328   0.317   0.312   0.303   0.311   0.300   0.297   0.292
    94.00    0.306   0.302   0.307   0.301   0.300   0.309   0.293   0.291   0.296   0.284   0.273   0.276   0.287   0.299   0.313   0.305   0.320   0.306   0.322   0.323   0.318   0.329   0.315   0.321   0.320   0.314   0.326   0.307   0.313   0.328   0.324   0.327   0.302   0.288   0.307
    89.35    0.311   0.304   0.295   0.297   0.293   0.298   0.285   0.299   0.296   0.293   0.279   0.270   0.291   0.310   0.311   0.319   0.332   0.308   0.306   0.315   0.319   0.309   0.309   0.321   0.323   0.326   0.331   0.315   0.314   0.328   0.331   0.324   0.307   0.281   0.285
    84.70    0.327   0.312   0.314   0.292   0.308   0.302   0.315   0.297   0.306   0.302   0.299   0.298   0.304   0.298   0.305   0.314   0.321   0.303   0.300   0.312   0.311   0.315   0.307   0.316   0.310   0.316   0.310   0.324   0.312   0.325   0.311   0.317   0.299   0.284   0.290
    80.05    0.329   0.330   0.321   0.321   0.305   0.322   0.310   0.302   0.321   0.322   0.327   0.299   0.307   0.304   0.298   0.303   0.308   0.278   0.282   0.294   0.306   0.318   0.313   0.313   0.302   0.304   0.310   0.304   0.295   0.313   0.311   0.313   0.294   0.296   0.298
    75.40    0.300   0.302   0.315   0.315   0.318   0.320   0.311   0.310   0.316   0.320   0.309   0.296   0.308   0.292   0.293   0.294   0.290   0.273   0.285   0.296   0.316   0.313   0.312   0.314   0.298   0.308   0.307   0.315   0.316   0.308   0.310   0.309   0.300   0.303   0.293
    70.75    0.306   0.301   0.314   0.303   0.319   0.318   0.311   0.300   0.297   0.293   0.295   0.297   0.292   0.290   0.279   0.285   0.282   0.275   0.276   0.302   0.306   0.300   0.299   0.298   0.298   0.298   0.317   0.327   0.323   0.315   0.307   0.299   0.284   0.294   0.288
    66.10    0.326   0.319   0.309   0.308   0.319   0.301   0.306   0.312   0.294   0.280   0.289   0.302   0.292   0.286   0.286   0.291   0.283   0.288   0.278   0.285   0.291   0.294   0.280   0.291   0.302   0.327   0.319   0.298   0.315   0.333   0.329   0.303   0.283   0.277   0.290
    61.45    0.319   0.300   0.299   0.291   0.300   0.307   0.312   0.291   0.286   0.283   0.280   0.284   0.279   0.270   0.279   0.289   0.291   0.284   0.275   0.287   0.289   0.289   0.292   0.284   0.307   0.322   0.318   0.324   0.313   0.314   0.330   0.297   0.275   0.278   0.283
    56.80    0.315   0.289   0.287   0.282   0.291   0.300   0.293   0.288   0.278   0.278   0.277   0.284   0.272   0.280   0.275   0.278   0.277   0.286   0.282   0.294   0.300   0.290   0.308   0.313   0.298   0.320   0.318   0.319   0.325   0.324   0.318   0.306   0.290   0.285   0.287
    52.15    0.311   0.298   0.288   0.285   0.301   0.309   0.276   0.283   0.282   0.278   0.284   0.293   0.283   0.274   0.282   0.284   0.287   0.299   0.302   0.311   0.297   0.301   0.309   0.309   0.313   0.312   0.328   0.320   0.320   0.323   0.325   0.292   0.281   0.278   0.293
    47.50    0.316   0.297   0.281   0.270   0.276   0.281   0.276   0.280   0.281   0.284   0.284   0.273   0.285   0.281   0.277   0.303   0.297   0.313   0.315   0.314   0.304   0.305   0.295   0.300   0.313   0.319   0.316   0.319   0.303   0.320   0.316   0.297   0.266   0.277   0.269
    42.85    0.296   0.302   0.291   0.285   0.275   0.266   0.273   0.286   0.277   0.289   0.296   0.276   0.295   0.278   0.280   0.291   0.316   0.316   0.298   0.307   0.306   0.303   0.288   0.294   0.313   0.323   0.319   0.313   0.314   0.320   0.299   0.268   0.272   0.274   0.266
    38.20    0.301   0.299   0.300   0.294   0.274   0.285   0.285   0.279   0.277   0.288   0.290   0.286   0.284   0.291   0.285   0.290   0.301   0.296   0.300   0.302   0.302   0.297   0.301   0.296   0.306   0.329   0.304   0.307   0.303   0.304   0.305   0.280   0.289   0.275   0.282
    33.55    0.294   0.298   0.294   0.308   0.294   0.291   0.282   0.284   0.274   0.282   0.288   0.278   0.269   0.276   0.285   0.277   0.283   0.291   0.299   0.301   0.291   0.301   0.299   0.298   0.294   0.312   0.313   0.308   0.297   0.288   0.293   0.294   0.283   0.280   0.280
    28.90    0.289   0.305   0.307   0.306   0.298   0.310   0.291   0.292   0.281   0.274   0.273   0.268   0.276   0.289   0.280   0.277   0.266   0.285   0.282   0.279   0.274   0.293   0.301   0.303   0.310   0.304   0.293   0.293   0.280   0.288   0.298   0.284   0.282   0.281   0.290
    24.25    0.319   0.308   0.316   0.300   0.304   0.307   0.291   0.279   0.293   0.291   0.274   0.272   0.278   0.294   0.290   0.284   0.269   0.278   0.263   0.269   0.281   0.302   0.311   0.316   0.309   0.300   0.302   0.292   0.283   0.288   0.285   0.293   0.291   0.280   0.288
    19.60    0.333   0.308   0.308   0.307   0.296   0.287   0.296   0.296   0.289   0.286   0.270   0.269   0.281   0.287   0.282   0.297   0.283   0.294   0.282   0.277   0.290   0.295   0.301   0.321   0.300   0.284   0.305   0.285   0.289   0.282   0.275   0.290   0.286   0.283   0.277
    14.95    0.318   0.302   0.300   0.311   0.285   0.289   0.294   0.284   0.295   0.291   0.276   0.268   0.274   0.293   0.292   0.288   0.290   0.287   0.291   0.307   0.291   0.294   0.291   0.302   0.309   0.292   0.297   0.310   0.282   0.282   0.281   0.298   0.277   0.282   0.282
    10.30    0.306   0.310   0.307   0.309   0.278   0.274   0.272   0.287   0.280   0.281   0.282   0.274   0.291   0.296   0.303   0.291   0.302   0.292   0.301   0.298   0.307   0.292   0.286   0.285   0.301   0.292   0.302   0.290   0.272   0.270   0.282   0.298   0.288   0.276   0.280
     5.65    0.302   0.307   0.318   0.313   0.295   0.295   0.293   0.284   0.287   0.281   0.289   0.290   0.303   0.310   0.296   0.287   0.298   0.302   0.305   0.294   0.301   0.301   0.295   0.281   0.293   0.291   0.299   0.289   0.277   0.267   0.278   0.282   0.271   0.276   0.291
     1.00    0.303   0.314   0.311   0.306   0.306   0.303   0.306   0.300   0.294   0.301   0.292   0.296   0.299   0.296   0.280   0.296   0.289   0.302   0.309   0.295   0.304   0.304   0.289   0.275   0.274   0.281   0.286   0.281   0.262   0.265   0.268   0.285   0.268   0.274   0.284

   Height   Standard deviation at grid points for the w component:
   168.40    0.198   0.204   0.199   0.196   0.203   0.203   0.203   0.204   0.202   0.187   0.199   0.192   0.197   0.196   0.195   0.193   0.200   0.199   0.193   0.195   0.188   0.194   0.184   0.192   0.195   0.196   0.190   0.188   0.192   0.188   0.181   0.175   0.178   0.183   0.179
   163.75    0.193   0.198   0.196   0.195   0.198   0.202   0.202   0.203   0.201   0.199   0.199   0.193   0.194   0.190   0.185   0.190   0.200   0.198   0.203   0.190   0.186   0.191   0.197   0.193   0.193   0.186   0.190   0.181   0.187   0.192   0.188   0.179   0.181   0.187   0.190
   159.10    0.190   0.199   0.193   0.191   0.196   0.198   0.207   0.207   0.204   0.208   0.201   0.198   0.184   0.190   0.186   0.192   0.191   0.200   0.199   0.194   0.193   0.190   0.196   0.188   0.192   0.192   0.193   0.191   0.192   0.194   0.194   0.190   0.179   0.185   0.183
   154.45    0.184   0.187   0.192   0.186   0.199   0.202   0.209   0.206   0.201   0.202   0.202   0.198   0.192   0.190   0.194   0.192   0.191   0.201   0.197   0.191   0.195   0.198   0.188   0.189   0.194   0.185   0.184   0.184   0.189   0.194   0.186   0.184   0.186   0.183   0.186
   149.80    0.191   0.193   0.192   0.188   0.192   0.203   0.206   0.203   0.210   0.204   0.195   0.184   0.192   0.199   0.197   0.198   0.201   0.197   0.190   0.183   0.193   0.196   0.189   0.190   0.180   0.178   0.177   0.176   0.181   0.184   0.187   0.181   0.169   0.184   0.181
   145.15    0.188   0.190   0.189   0.195   0.193   0.197   0.205   0.203   0.205   0.201   0.193   0.191   0.191   0.191   0.200   0.197   0.195   0.191   0.185   0.188   0.192   0.196   0.188   0.187   0.184   0.189   0.189   0.186   0.181   0.189   0.187   0.180   0.176   0.187   0.185
   140.50    0.187   0.190   0.194   0.194   0.201   0.195   0.206   0.208   0.203   0.206   0.198   0.193   0.193   0.197   0.199   0.201   0.197   0.198   0.192   0.187   0.190   0.190   0.185   0.189   0.193   0.196   0.190   0.183   0.188   0.186   0.187   0.182   0.181   0.180   0.183
   135.85    0.185   0.187   0.196   0.192   0.198   0.194   0.199   0.206   0.209   0.197   0.198   0.199   0.197   0.197   0.196   0.190   0.192   0.195   0.193   0.200   0.190   0.193   0.184   0.185   0.194   0.202   0.194   0.197   0.194   0.185   0.185   0.185   0.181   0.175   0.176
   131.20    0.185   0.194   0.194   0.193   0.199   0.204   0.201   0.206   0.207   0.209   0.196   0.203   0.200   0.202   0.196   0.185   0.192   0.194   0.190   0.197   0.192   0.192   0.192   0.193   0.196   0.194   0.201   0.196   0.199   0.190   0.186   0.179   0.184   0.181   0.180
   126.55    0.196   0.197   0.195   0.196   0.192   0.201   0.208   0.206   0.210   0.212   0.209   0.209   0.210   0.207   0.204   0.198   0.201   0.199   0.196   0.195   0.191   0.196   0.200   0.199   0.193   0.195   0.202   0.200   0.199   0.189   0.189   0.188   0.182   0.182   0.185
   121.90    0.191   0.187   0.191   0.194   0.202   0.197   0.204   0.203   0.208   0.214   0.208   0.207   0.213   0.214   0.215   0.216   0.211   0.208   0.205   0.198   0.200   0.205   0.204   0.198   0.184   0.188   0.199   0.199   0.184   0.184   0.193   0.186   0.191   0.191   0.188
   117.25    0.191   0.186   0.185   0.195   0.193   0.187   0.195   0.202   0.201   0.210   0.213   0.199   0.211   0.218   0.216   0.211   0.205   0.212   0.210   0.212   0.211   0.196   0.197   0.197   0.190   0.194   0.196   0.195   0.193   0.190   0.180   0.187   0.196   0.193   0.185
   112.60    0.194   0.199   0.200   0.195   0.193   0.193   0.194   0.201   0.206   0.196   0.208   0.206   0.208   0.202   0.207   0.203   0.199   0.197   0.211   0.210   0.210   0.196   0.195   0.191   0.191   0.189   0.187   0.189   0.181   0.185   0.183   0.189   0.188   0.192   0.186
   107.95    0.198   0.195   0.199   0.195   0.194   0.194   0.192   0.200   0.204   0.199   0.199   0.202   0.211   0.199   0.202   0.198   0.197   0.199   0.210   0.203   0.202   0.203   0.196   0.194   0.184   0.187   0.179   0.178   0.184   0.188   0.185   0.197   0.191   0.194   0.189
   103.30    0.201   0.199   0.197   0.188   0.189   0.194   0.192   0.197   0.195   0.194   0.193   0.200   0.201   0.201   0.197   0.201   0.196   0.197   0.198   0.193   0.195   0.198   0.198   0.196   0.181   0.182   0.183   0.190   0.188   0.186   0.190   0.197   0.204   0.195   0.196
    98.65    0.202   0.206   0.196   0.196   0.188   0.194   0.198   0.194   0.196   0.195   0.192   0.192   0.194   0.194   0.191   0.199   0.206   0.196   0.190   0.188   0.192   0.199   0.194   0.195   0.185   0.186   0.187   0.187   0.188   0.190   0.189   0.191   0.199   0.196   0.193
    94.00    0.207   0.213   0.194   0.195   0.198   0.195   0.194   0.200   0.196   0.196   0.186   0.187   0.193   0.194   0.191   0.192   0.203   0.197   0.196   0.193   0.200   0.196   0.193   0.198   0.190   0.190   0.188   0.186   0.181   0.193   0.199   0.200   0.196   0.189   0.186
    89.35    0.208   0.213   0.210   0.199   0.201   0.197   0.199   0.200   0.197   0.206   0.195   0.192   0.192   0.193   0.185   0.187   0.198   0.191   0.197   0.198   0.195   0.197   0.197   0.194   0.193   0.196   0.189   0.182   0.184   0.196   0.203   0.193   0.191   0.191   0.193
    84.70    0.214   0.219   0.211   0.205   0.204   0.202   0.198   0.206   0.200   0.199   0.205   0.195   0.187   0.189   0.190   0.185   0.193   0.195   0.191   0.201   0.194   0.190   0.193   0.189   0.192   0.189   0.194   0.193   0.196   0.201   0.193   0.192   0.192   0.186   0.189
    80.05    0.216   0.208   0.205   0.218   0.211   0.199   0.197   0.198   0.199   0.205   0.201   0.197   0.192   0.189   0.198   0.194   0.199   0.191   0.199   0.200   0.201   0.198   0.203   0.212   0.203   0.200   0.196   0.192   0.192   0.192   0.199   0.194   0.188   0.187   0.184
    75.40    0.218   0.222   0.214   0.214   0.206   0.198   0.202   0.199   0.197   0.206   0.209   0.194   0.194   0.191   0.194   0.195   0.191   0.193   0.199   0.204   0.209   0.207   0.207   0.210   0.208   0.194   0.196   0.193   0.194   0.183   0.193   0.195   0.192   0.179   0.185
    70.75    0.211   0.219   0.213   0.217   0.216   0.214   0.202   0.200   0.195   0.200   0.202   0.197   0.193   0.194   0.191   0.192   0.195   0.194   0.201   0.203   0.202   0.204   0.210   0.207   0.203   0.193   0.194   0.193   0.198   0.190   0.187   0.190   0.193   0.192   0.192
    66.10    0.203   0.209   0.218   0.221   0.217   0.214   0.201   0.198   0.207   0.204   0.201   0.203   0.190   0.191   0.189   0.188   0.192   0.189   0.199   0.205   0.200   0.216   0.217   0.209   0.189   0.195   0.197   0.196   0.203   0.189   0.189   0.198   0.196   0.199   0.195
    61.45    0.207   0.205   0.210   0.216   0.213   0.218   0.197   0.205   0.210   0.204   0.204   0.200   0.196   0.190   0.187   0.187   0.195   0.197   0.203   0.200   0.212   0.208   0.213   0.209   0.197   0.200   0.205   0.192   0.205   0.199   0.192   0.198   0.190   0.185   0.188
    56.80    0.217   0.220   0.217   0.213   0.211   0.210   0.206   0.204   0.205   0.203   0.197   0.194   0.199   0.198   0.187   0.181   0.194   0.201   0.205   0.200   0.212   0.209   0.205   0.211   0.207   0.206   0.201   0.200   0.198   0.204   0.201   0.196   0.197   0.195   0.188
    52.15    0.216   0.214   0.218   0.213   0.216   0.211   0.212   0.211   0.202   0.203   0.190   0.196   0.200   0.196   0.190   0.190   0.195   0.199   0.208   0.202   0.205   0.205   0.199   0.199   0.205   0.218   0.207   0.210   0.205   0.202   0.205   0.200   0.193   0.199   0.192
    47.50    0.212   0.212   0.211   0.214   0.210   0.216   0.223   0.209   0.202   0.212   0.205   0.203   0.202   0.190   0.192   0.185   0.189   0.190   0.201   0.199   0.199   0.199   0.192   0.206   0.211   0.216   0.206   0.192   0.205   0.203   0.204   0.199   0.196   0.190   0.190
    42.85    0.208   0.215   0.208   0.211   0.207   0.215   0.218   0.215   0.209   0.206   0.204   0.205   0.204   0.196   0.189   0.187   0.179   0.180   0.188   0.193   0.202   0.203   0.206   0.208   0.204   0.208   0.201   0.201   0.202   0.202   0.201   0.196   0.197   0.192   0.183
    38.20    0.217   0.205   0.211   0.206   0.209   0.213   0.210   0.205   0.208   0.201   0.208   0.205   0.208   0.212   0.208   0.197   0.194   0.192   0.185   0.195   0.206   0.208   0.206   0.204   0.201   0.202   0.195   0.191   0.190   0.195   0.194   0.194   0.190   0.190   0.191
    33.55    0.216   0.215   0.214   0.207   0.206   0.204   0.199   0.202   0.210   0.209   0.207   0.201   0.206   0.207   0.206   0.212   0.201   0.202   0.191   0.204   0.204   0.209   0.198   0.200   0.202   0.202   0.192   0.195   0.199   0.191   0.187   0.193   0.180   0.182   0.182
    28.90    0.217   0.205   0.208   0.202   0.202   0.202   0.208   0.213   0.218   0.201   0.205   0.202   0.204   0.206   0.206   0.213   0.211   0.210   0.210   0.202   0.202   0.210   0.205   0.196   0.198   0.204   0.189   0.192   0.199   0.192   0.192   0.180   0.183   0.183   0.176
    24.25    0.214   0.202   0.201   0.200   0.205   0.209   0.216   0.217   0.209   0.204   0.205   0.200   0.206   0.212   0.217   0.213   0.221   0.211   0.211   0.208   0.201   0.207   0.199   0.197   0.189   0.191   0.202   0.195   0.204   0.195   0.195   0.190   0.188   0.186   0.180
    19.60    0.203   0.197   0.190   0.200   0.205   0.202   0.203   0.206   0.200   0.200   0.196   0.194   0.200   0.201   0.199   0.214   0.214   0.214   0.214   0.209   0.208   0.205   0.198   0.197   0.191   0.198   0.203   0.202   0.208   0.199   0.204   0.197   0.194   0.191   0.189
    14.95    0.198   0.192   0.195   0.199   0.210   0.201   0.200   0.190   0.192   0.189   0.191   0.191   0.206   0.207   0.215   0.210   0.202   0.208   0.212   0.209   0.202   0.196   0.191   0.198   0.194   0.192   0.197   0.210   0.209   0.215   0.206   0.209   0.205   0.195   0.198
    10.30    0.197   0.196   0.191   0.194   0.204   0.201   0.201   0.194   0.184   0.193   0.200   0.203   0.202   0.205   0.214   0.219   0.208   0.205   0.202   0.202   0.204   0.204   0.194   0.200   0.203   0.191   0.193   0.206   0.209   0.204   0.199   0.197   0.202   0.205   0.205
     5.65    0.201   0.196   0.195   0.191   0.194   0.196   0.196   0.192   0.192   0.189   0.198   0.207   0.206   0.201   0.208   0.208   0.209   0.208   0.198   0.197   0.199   0.203   0.208   0.202   0.207   0.204   0.203   0.198   0.199   0.205   0.199   0.199   0.204   0.200   0.202
     1.00    0.198   0.198   0.191   0.194   0.192   0.202   0.193   0.191   0.191   0.200   0.199   0.204   0.199   0.201   0.209   0.212   0.206   0.202   0.197   0.200   0.206   0.208   0.206   0.203   0.196   0.200   0.188   0.197   0.205   0.199   0.203   0.202   0.197   0.204   0.200

   Mean standard deviation across all grid points:
      u component:    0.331 m/s
      v component:    0.301 m/s
      w component:    0.198 m/s


U-component (X) statistics from the interpolated hub point:

   Mean =   9.9913 m/s
   TI   =   3.3655 %


Processing complete.  5608.4 CPU seconds used.
