
This summary file was generated by TurbSim (from OpenFAST-v3.5.3) on 20-Apr-2025 at 09:32:21.


Runtime Options:

**********  Random seed #1
    RANLUX  Type of random number generator
         F  Output binary HH turbulence parameters?
         F  Output formatted turbulence parameters?
         F  Output AeroDyn HH files?
         T  Output AeroDyn FF files?
         F  Output BLADED FF files?
         F  Output tower data?
         F  Output HAWC FF files?
         F  Output formatted FF files?
         T  Output coherent turbulence time step file?
 0 -  NONE  IEC turbulence models scaled to exact specified standard deviation


Turbine/Model Specifications:

        37  Vertical grid-point matrix dimension
        35  Horizontal grid-point matrix dimension
     0.250  Time step [seconds]
   900.000  Analysis time [seconds]
   900.000  Usable output time [seconds]
    89.350  Hub height [m]
   167.400  Grid height [m]
   158.100  Grid width [m]
     0.000  Vertical flow angle [degrees]
     0.000  Horizontal flow angle [degrees]


Meteorological Boundary Conditions:

    TIMESR  User-input time series spectral model
       N/A  IEC standard
       N/A  IEC turbulence characteristic
       N/A  IEC turbulence type
       N/A  IEC Extreme Turbulence Model (ETM) "c" parameter [m/s]
       PL   Wind profile type
    90.000  Reference height [m]
    10.000  Reference wind speed [m/s]
       N/A  Jet height [m]
     0.120  Power law exponent
     0.030  Surface roughness length [m]


Non-IEC Meteorological Boundary Conditions:

    45.000  Site latitude [degrees]
     0.050  Gradient Richardson number
     0.480  Friction or shear velocity [m/s]
       N/A  Mixing layer depth [m]
       N/A  Mean hub u'w' Reynolds stress
       N/A  Mean hub u'v' Reynolds stress
       N/A  Mean hub v'w' Reynolds stress


Spatial Coherence Models:

       IEC  u-component coherence model
       IEC  v-component coherence model
       IEC  w-component coherence model
(   12.000, 0.353E-03)  u-component coherence parameters
(   12.000, 0.353E-03)  v-component coherence parameters
(   12.000, 0.353E-03)  w-component coherence parameters
       N/A  Coherence exponent


Coherent Turbulence Scaling Parameters:

.\EventData
            Name of the path containing the coherent turbulence data files
       les  Type of coherent turbulence data files
     1.000  Disturbance scale (ratio of wave height to rotor diameter)
     0.500  Fractional location of tower centerline from right
     0.500  Fractional location of hub height from the bottom of the dataset
    30.000  Minimum start time for coherent structures [seconds]


Profiles from User-Defined Time-Series Input:

  Height   Wind Speed   Horizontal Angle   Vertical Angle
   (m)        (m/s)          (deg)              (deg)    
  ------   ----------   ----------------   --------------
   94.00      10.00          -0.63               -0.00


You have requested that the following file(s) be generated:

   /kfs3/scratch/agupta/Projects/RL_Incubator/FinalRuns_Veer/Seed4/./FFSim_Seed4/Cond00_v10.0_PL0.12_TI3.0/Case2_wdirp04/Seed_7/TurbSim/HighT2.bts (AeroDyn/TurbSim full-field wind file)


Turbulence Simulation Scaling Parameter Summary:

   Turbulence model used                            =  User-input time series
   Gradient Richardson number                       =    0.050
   Monin-Obukhov (M-O) z/L parameter                =    0.067
   Monin-Obukhov (M-O) length scale                 = 1340.250 m
   Mean wind speed at hub height                    =    9.991 m/s

   Wind profile type                                =  Power law
   Power law exponent                               =    0.120
   Mean shear across rotor disk                     =    0.019 (m/s)/m
   Assumed rotor diameter                           =  158.100 m
   Surface roughness length                         =    0.030 m

   Nyquist frequency of turbulent wind field        =    2.000 Hz

   Number of time steps in the FFT                  =     3600
   Number of time steps output                      =     3600
   Number of points simulated                       =     1296


Mean Flow Angles:

   Vertical   =   0.0 degrees
   Horizontal =   0.0 degrees

Mean Wind Speed Profile:

   Height    Wind Speed   Horizontal Angle  Vertical Angle  U-comp (X)   V-comp (Y)   W-comp (Z)
     (m)        (m/s)         (degrees)       (degrees)       (m/s)        (m/s)        (m/s)   
   ------    ----------   ----------------  --------------  ----------   ----------   ----------
    168.4       10.78            0.00            0.00         10.78         0.00         0.00
    163.7       10.74            0.00            0.00         10.74         0.00         0.00
    159.1       10.71            0.00            0.00         10.71         0.00         0.00
    154.4       10.67            0.00            0.00         10.67         0.00         0.00
    149.8       10.63            0.00            0.00         10.63         0.00         0.00
    145.1       10.59            0.00            0.00         10.59         0.00         0.00
    140.5       10.55            0.00            0.00         10.55         0.00         0.00
    135.8       10.51            0.00            0.00         10.51         0.00         0.00
    131.2       10.46            0.00            0.00         10.46         0.00         0.00
    126.5       10.42            0.00            0.00         10.42         0.00         0.00
    121.9       10.37            0.00            0.00         10.37         0.00         0.00
    117.2       10.32            0.00            0.00         10.32         0.00         0.00
    112.6       10.27            0.00            0.00         10.27         0.00         0.00
    107.9       10.22            0.00            0.00         10.22         0.00         0.00
    103.3       10.17            0.00            0.00         10.17         0.00         0.00
     98.6       10.11            0.00            0.00         10.11         0.00         0.00
     94.0       10.05            0.00            0.00         10.05         0.00         0.00
     89.3        9.99            0.00            0.00          9.99         0.00         0.00
     84.7        9.93            0.00            0.00          9.93         0.00         0.00
     80.0        9.86            0.00            0.00          9.86         0.00         0.00
     75.4        9.79            0.00            0.00          9.79         0.00         0.00
     70.7        9.72            0.00            0.00          9.72         0.00         0.00
     66.1        9.64            0.00            0.00          9.64         0.00         0.00
     61.4        9.55            0.00            0.00          9.55         0.00         0.00
     56.8        9.46            0.00            0.00          9.46         0.00         0.00
     52.1        9.37            0.00            0.00          9.37         0.00         0.00
     47.5        9.26            0.00            0.00          9.26         0.00         0.00
     42.8        9.15            0.00            0.00          9.15         0.00         0.00
     38.2        9.02            0.00            0.00          9.02         0.00         0.00
     33.5        8.88            0.00            0.00          8.88         0.00         0.00
     28.9        8.73            0.00            0.00          8.73         0.00         0.00
     24.2        8.54            0.00            0.00          8.54         0.00         0.00
     19.6        8.33            0.00            0.00          8.33         0.00         0.00
     14.9        8.06            0.00            0.00          8.06         0.00         0.00
     10.3        7.71            0.00            0.00          7.71         0.00         0.00
      5.6        7.17            0.00            0.00          7.17         0.00         0.00
      1.0        5.83            0.00            0.00          5.83         0.00         0.00


Harvested Random Seeds after Generation of the Random Numbers:

     65026800 K 1
            0 K 2


Hub-Height Simulated Turbulence Statistical Summary:

   Type of Wind        Min (m/s)   Mean (m/s)    Max (m/s)  Sigma (m/s)       TI (%)
   ----------------    ---------   ----------    ---------  -----------       ------
   Longitudinal (u)         9.11         9.99        10.79        0.323        3.231
   Lateral (v)             -0.76        -0.00         0.75        0.217        2.176
   Vertical (w)            -0.51         0.00         0.58        0.150        1.497
   U component              9.11         9.99        10.79        0.323        3.231
   V component             -0.76        -0.00         0.75        0.217        2.176
   W component             -0.51         0.00         0.58        0.150        1.497
   Horizontal (U&V)         9.11         9.99        10.79        0.323        3.232
   Total                    9.11         9.99        10.79        0.323        3.232

                       Min Reynolds     Mean Reynolds    Max Reynolds    Correlation
   Product             Stress (m/s)^2   Stress (m/s)^2   Stress (m/s)^2  Coefficient
   ----------------    --------------   --------------   --------------  -----------
   u'w'                     -0.249            -0.003             0.325        -0.063
   u'v'                     -0.348            -0.001             0.351        -0.015
   v'w'                     -0.243            -0.001             0.185        -0.018


   Friction Velocity (Ustar)  =      0.055 m/s
   Maximum Instantaneous TKE  =      0.402 (m/s)^2
   Maximum Instantaneous CTKE =      0.227 (m/s)^2


Grid Point Variance Summary:

   Y-coord  -79.05  -74.40  -69.75  -65.10  -60.45  -55.80  -51.15  -46.50  -41.85  -37.20  -32.55  -27.90  -23.25  -18.60  -13.95   -9.30   -4.65    0.00    4.65    9.30   13.95   18.60   23.25   27.90   32.55   37.20   41.85   46.50   51.15   55.80   60.45   65.10   69.75   74.40   79.05

   Height   Standard deviation at grid points for the u component:
   168.40    0.341   0.348   0.317   0.290   0.269   0.264   0.283   0.244   0.229   0.244   0.261   0.251   0.245   0.260   0.263   0.290   0.318   0.332   0.340   0.371   0.368   0.385   0.368   0.383   0.387   0.349   0.357   0.352   0.341   0.323   0.309   0.305   0.303   0.290   0.283
   163.75    0.332   0.322   0.300   0.300   0.282   0.296   0.288   0.267   0.253   0.259   0.241   0.238   0.248   0.245   0.262   0.294   0.294   0.325   0.368   0.355   0.387   0.404   0.392   0.367   0.352   0.378   0.373   0.346   0.362   0.339   0.347   0.326   0.303   0.299   0.298
   159.10    0.324   0.327   0.295   0.301   0.300   0.314   0.295   0.272   0.279   0.258   0.262   0.258   0.250   0.266   0.272   0.292   0.320   0.341   0.378   0.393   0.390   0.391   0.405   0.373   0.396   0.376   0.357   0.337   0.346   0.350   0.359   0.356   0.338   0.310   0.302
   154.45    0.343   0.324   0.321   0.316   0.315   0.329   0.314   0.317   0.277   0.266   0.279   0.267   0.276   0.287   0.321   0.284   0.323   0.341   0.367   0.373   0.367   0.392   0.397   0.404   0.380   0.380   0.353   0.344   0.361   0.347   0.357   0.365   0.355   0.323   0.304
   149.80    0.350   0.351   0.310   0.324   0.333   0.351   0.320   0.309   0.284   0.312   0.322   0.307   0.291   0.299   0.305   0.283   0.313   0.344   0.344   0.388   0.372   0.362   0.379   0.393   0.389   0.390   0.381   0.363   0.349   0.353   0.342   0.340   0.344   0.332   0.340
   145.15    0.359   0.331   0.322   0.320   0.333   0.337   0.314   0.298   0.301   0.292   0.318   0.321   0.293   0.288   0.300   0.296   0.318   0.342   0.361   0.385   0.372   0.353   0.388   0.389   0.372   0.358   0.383   0.361   0.357   0.357   0.362   0.350   0.341   0.372   0.365
   140.50    0.361   0.370   0.340   0.315   0.317   0.314   0.333   0.317   0.336   0.307   0.309   0.322   0.306   0.308   0.307   0.311   0.329   0.318   0.354   0.393   0.373   0.351   0.371   0.396   0.365   0.386   0.402   0.372   0.366   0.362   0.345   0.366   0.357   0.370   0.383
   135.85    0.357   0.355   0.332   0.333   0.319   0.301   0.305   0.320   0.327   0.342   0.335   0.318   0.332   0.325   0.327   0.327   0.346   0.347   0.355   0.373   0.384   0.381   0.359   0.364   0.388   0.399   0.399   0.385   0.386   0.356   0.327   0.342   0.347   0.383   0.363
   131.20    0.372   0.359   0.355   0.356   0.335   0.313   0.331   0.322   0.339   0.359   0.355   0.353   0.312   0.322   0.315   0.335   0.344   0.350   0.377   0.362   0.355   0.385   0.395   0.383   0.379   0.393   0.366   0.366   0.347   0.334   0.322   0.332   0.331   0.357   0.348
   126.55    0.370   0.383   0.370   0.344   0.333   0.320   0.333   0.342   0.348   0.351   0.330   0.325   0.321   0.335   0.334   0.341   0.339   0.350   0.375   0.386   0.379   0.395   0.407   0.401   0.395   0.433   0.392   0.352   0.376   0.353   0.326   0.346   0.333   0.357   0.357
   121.90    0.381   0.384   0.370   0.349   0.361   0.340   0.332   0.356   0.363   0.331   0.329   0.346   0.348   0.358   0.327   0.357   0.359   0.364   0.365   0.353   0.357   0.363   0.408   0.411   0.424   0.430   0.419   0.390   0.366   0.373   0.343   0.323   0.349   0.353   0.356
   117.25    0.383   0.392   0.341   0.371   0.362   0.367   0.361   0.373   0.375   0.344   0.365   0.343   0.357   0.330   0.328   0.352   0.343   0.335   0.331   0.361   0.374   0.391   0.403   0.367   0.405   0.412   0.371   0.375   0.377   0.351   0.357   0.367   0.345   0.332   0.347
   112.60    0.365   0.362   0.362   0.373   0.348   0.361   0.375   0.391   0.382   0.351   0.352   0.354   0.357   0.343   0.340   0.358   0.343   0.349   0.354   0.363   0.390   0.392   0.376   0.382   0.383   0.393   0.362   0.356   0.372   0.345   0.352   0.348   0.357   0.350   0.364
   107.95    0.347   0.356   0.370   0.363   0.375   0.380   0.385   0.386   0.381   0.381   0.352   0.345   0.345   0.365   0.344   0.344   0.345   0.350   0.389   0.395   0.385   0.378   0.404   0.372   0.394   0.382   0.375   0.353   0.343   0.363   0.338   0.339   0.350   0.348   0.334
   103.30    0.359   0.355   0.343   0.378   0.356   0.367   0.366   0.364   0.366   0.391   0.370   0.365   0.355   0.346   0.345   0.350   0.359   0.349   0.352   0.356   0.376   0.364   0.379   0.369   0.370   0.373   0.360   0.355   0.348   0.336   0.362   0.330   0.335   0.325   0.350
    98.65    0.344   0.360   0.351   0.343   0.366   0.350   0.368   0.394   0.412   0.384   0.388   0.361   0.358   0.362   0.339   0.325   0.304   0.339   0.341   0.354   0.349   0.351   0.354   0.343   0.335   0.343   0.328   0.342   0.330   0.329   0.331   0.327   0.331   0.346   0.347
    94.00    0.375   0.357   0.322   0.352   0.340   0.352   0.362   0.385   0.404   0.414   0.376   0.371   0.373   0.353   0.313   0.329   0.310   0.327   0.336   0.338   0.354   0.357   0.336   0.332   0.318   0.324   0.315   0.300   0.318   0.307   0.338   0.311   0.298   0.322   0.309
    89.35    0.347   0.361   0.353   0.366   0.343   0.343   0.365   0.400   0.405   0.401   0.378   0.365   0.375   0.350   0.344   0.341   0.314   0.323   0.327   0.320   0.339   0.329   0.310   0.287   0.316   0.317   0.319   0.318   0.327   0.321   0.325   0.317   0.329   0.310   0.322
    84.70    0.362   0.352   0.383   0.349   0.343   0.372   0.380   0.395   0.382   0.372   0.369   0.384   0.376   0.357   0.335   0.332   0.314   0.329   0.328   0.330   0.321   0.299   0.292   0.304   0.316   0.318   0.322   0.324   0.312   0.340   0.347   0.315   0.328   0.326   0.322
    80.05    0.371   0.356   0.366   0.364   0.352   0.356   0.398   0.411   0.364   0.356   0.376   0.368   0.353   0.379   0.350   0.329   0.320   0.325   0.331   0.336   0.326   0.300   0.291   0.303   0.333   0.335   0.330   0.334   0.345   0.355   0.337   0.323   0.330   0.342   0.336
    75.40    0.411   0.377   0.362   0.358   0.366   0.389   0.396   0.383   0.381   0.379   0.352   0.368   0.392   0.373   0.338   0.319   0.329   0.322   0.333   0.317   0.310   0.302   0.300   0.329   0.332   0.347   0.370   0.348   0.353   0.342   0.347   0.350   0.355   0.329   0.324
    70.75    0.407   0.425   0.373   0.365   0.376   0.404   0.393   0.372   0.381   0.401   0.358   0.361   0.378   0.360   0.347   0.335   0.319   0.323   0.325   0.341   0.326   0.325   0.303   0.331   0.346   0.361   0.358   0.345   0.361   0.350   0.346   0.344   0.358   0.354   0.344
    66.10    0.442   0.412   0.390   0.378   0.400   0.403   0.389   0.379   0.386   0.388   0.359   0.370   0.358   0.384   0.352   0.355   0.336   0.321   0.333   0.352   0.344   0.345   0.316   0.340   0.346   0.330   0.338   0.350   0.333   0.349   0.351   0.356   0.333   0.368   0.355
    61.45    0.419   0.407   0.393   0.377   0.405   0.403   0.428   0.417   0.375   0.382   0.373   0.361   0.370   0.376   0.380   0.381   0.361   0.331   0.365   0.359   0.371   0.355   0.341   0.343   0.318   0.325   0.345   0.351   0.325   0.354   0.378   0.374   0.374   0.361   0.350
    56.80    0.429   0.410   0.382   0.377   0.392   0.395   0.403   0.419   0.390   0.381   0.357   0.355   0.343   0.361   0.352   0.367   0.361   0.336   0.358   0.387   0.372   0.347   0.312   0.316   0.331   0.344   0.346   0.344   0.335   0.337   0.370   0.378   0.382   0.348   0.363
    52.15    0.398   0.396   0.383   0.382   0.397   0.383   0.391   0.419   0.387   0.388   0.356   0.354   0.343   0.340   0.347   0.358   0.345   0.349   0.353   0.362   0.357   0.327   0.325   0.325   0.340   0.339   0.358   0.368   0.349   0.366   0.382   0.387   0.388   0.365   0.370
    47.50    0.398   0.363   0.382   0.393   0.404   0.391   0.411   0.415   0.416   0.404   0.391   0.362   0.363   0.362   0.378   0.343   0.349   0.354   0.358   0.331   0.345   0.327   0.331   0.336   0.331   0.331   0.346   0.364   0.358   0.364   0.364   0.365   0.383   0.390   0.395
    42.85    0.392   0.372   0.412   0.426   0.397   0.407   0.396   0.407   0.418   0.428   0.428   0.390   0.384   0.384   0.377   0.380   0.347   0.333   0.333   0.324   0.343   0.309   0.319   0.327   0.329   0.338   0.358   0.340   0.361   0.347   0.360   0.361   0.362   0.404   0.382
    38.20    0.402   0.389   0.411   0.414   0.415   0.401   0.396   0.395   0.408   0.401   0.407   0.380   0.385   0.386   0.386   0.398   0.382   0.365   0.324   0.322   0.331   0.331   0.333   0.316   0.331   0.325   0.341   0.358   0.339   0.344   0.334   0.347   0.342   0.373   0.382
    33.55    0.383   0.389   0.412   0.386   0.421   0.422   0.457   0.433   0.416   0.391   0.391   0.384   0.372   0.358   0.365   0.394   0.369   0.344   0.353   0.334   0.337   0.339   0.331   0.344   0.335   0.325   0.344   0.339   0.326   0.326   0.343   0.357   0.341   0.366   0.368
    28.90    0.381   0.384   0.403   0.387   0.416   0.431   0.433   0.428   0.414   0.424   0.418   0.368   0.345   0.376   0.375   0.392   0.406   0.366   0.374   0.332   0.326   0.345   0.322   0.302   0.317   0.324   0.333   0.350   0.317   0.308   0.335   0.340   0.358   0.364   0.380
    24.25    0.380   0.392   0.393   0.403   0.406   0.395   0.390   0.410   0.419   0.419   0.426   0.366   0.355   0.362   0.369   0.409   0.403   0.391   0.353   0.331   0.345   0.334   0.304   0.284   0.296   0.298   0.308   0.315   0.311   0.322   0.332   0.351   0.341   0.374   0.390
    19.60    0.413   0.428   0.420   0.417   0.397   0.399   0.413   0.377   0.380   0.384   0.401   0.348   0.336   0.339   0.341   0.380   0.415   0.413   0.362   0.356   0.338   0.334   0.317   0.300   0.283   0.327   0.333   0.321   0.312   0.325   0.337   0.366   0.389   0.373   0.391
    14.95    0.401   0.421   0.442   0.449   0.433   0.394   0.387   0.355   0.370   0.361   0.377   0.332   0.309   0.319   0.321   0.357   0.397   0.392   0.360   0.381   0.348   0.321   0.310   0.305   0.294   0.305   0.325   0.322   0.295   0.326   0.354   0.363   0.396   0.374   0.371
    10.30    0.388   0.396   0.414   0.409   0.452   0.435   0.395   0.354   0.345   0.365   0.360   0.345   0.327   0.335   0.318   0.336   0.362   0.352   0.371   0.361   0.331   0.334   0.322   0.325   0.311   0.309   0.323   0.333   0.322   0.318   0.347   0.363   0.357   0.389   0.394
     5.65    0.396   0.351   0.364   0.405   0.432   0.429   0.408   0.367   0.363   0.364   0.356   0.363   0.327   0.341   0.325   0.313   0.350   0.377   0.353   0.351   0.331   0.311   0.339   0.334   0.315   0.311   0.319   0.309   0.315   0.322   0.333   0.354   0.377   0.396   0.395
     1.00    0.363   0.345   0.370   0.368   0.407   0.439   0.401   0.355   0.328   0.351   0.385   0.349   0.323   0.320   0.308   0.314   0.348   0.385   0.347   0.321   0.345   0.318   0.312   0.320   0.312   0.306   0.317   0.308   0.318   0.317   0.335   0.344   0.375   0.381   0.375

   Height   Standard deviation at grid points for the v component:
   168.40    0.218   0.227   0.227   0.244   0.240   0.230   0.226   0.238   0.228   0.233   0.243   0.246   0.242   0.224   0.218   0.209   0.211   0.215   0.207   0.194   0.198   0.199   0.195   0.200   0.208   0.204   0.214   0.214   0.218   0.237   0.230   0.231   0.238   0.237   0.228
   163.75    0.222   0.218   0.225   0.234   0.225   0.233   0.228   0.235   0.239   0.237   0.253   0.245   0.238   0.230   0.228   0.225   0.211   0.209   0.209   0.203   0.200   0.196   0.196   0.197   0.202   0.208   0.204   0.212   0.220   0.234   0.240   0.241   0.239   0.230   0.235
   159.10    0.229   0.231   0.223   0.222   0.222   0.223   0.230   0.236   0.252   0.250   0.254   0.251   0.248   0.235   0.229   0.227   0.220   0.214   0.222   0.209   0.215   0.206   0.214   0.203   0.207   0.221   0.215   0.207   0.211   0.231   0.235   0.244   0.244   0.239   0.244
   154.45    0.230   0.232   0.237   0.240   0.221   0.231   0.230   0.244   0.247   0.260   0.253   0.251   0.252   0.238   0.231   0.219   0.224   0.217   0.219   0.221   0.220   0.215   0.208   0.206   0.219   0.220   0.220   0.205   0.210   0.225   0.234   0.240   0.246   0.232   0.245
   149.80    0.227   0.235   0.231   0.226   0.225   0.232   0.241   0.244   0.248   0.262   0.264   0.253   0.255   0.246   0.238   0.231   0.226   0.222   0.224   0.217   0.223   0.218   0.205   0.214   0.212   0.218   0.202   0.196   0.214   0.222   0.226   0.227   0.238   0.244   0.250
   145.15    0.225   0.231   0.221   0.231   0.222   0.227   0.230   0.237   0.251   0.257   0.250   0.258   0.249   0.261   0.247   0.228   0.230   0.226   0.223   0.218   0.216   0.209   0.210   0.208   0.206   0.207   0.206   0.209   0.208   0.208   0.220   0.223   0.235   0.254   0.248
   140.50    0.232   0.234   0.232   0.236   0.222   0.239   0.232   0.252   0.248   0.249   0.241   0.248   0.253   0.256   0.253   0.238   0.238   0.238   0.224   0.210   0.219   0.215   0.206   0.206   0.208   0.220   0.219   0.212   0.213   0.210   0.217   0.224   0.236   0.234   0.245
   135.85    0.233   0.233   0.232   0.219   0.230   0.233   0.238   0.243   0.229   0.234   0.236   0.248   0.247   0.253   0.259   0.251   0.240   0.236   0.228   0.219   0.218   0.220   0.220   0.212   0.202   0.215   0.233   0.229   0.219   0.226   0.216   0.214   0.230   0.238   0.243
   131.20    0.226   0.233   0.213   0.227   0.233   0.230   0.236   0.235   0.218   0.240   0.241   0.245   0.256   0.255   0.259   0.261   0.250   0.235   0.222   0.221   0.224   0.217   0.214   0.211   0.210   0.223   0.225   0.228   0.224   0.221   0.222   0.224   0.229   0.240   0.243
   126.55    0.236   0.239   0.222   0.218   0.228   0.229   0.226   0.235   0.225   0.229   0.240   0.250   0.254   0.248   0.236   0.238   0.242   0.243   0.226   0.215   0.225   0.223   0.211   0.208   0.225   0.220   0.224   0.222   0.215   0.237   0.250   0.250   0.247   0.253   0.252
   121.90    0.230   0.227   0.234   0.231   0.231   0.229   0.228   0.225   0.223   0.241   0.238   0.238   0.233   0.239   0.225   0.228   0.231   0.240   0.217   0.218   0.232   0.219   0.213   0.218   0.225   0.235   0.230   0.221   0.230   0.242   0.253   0.246   0.247   0.252   0.262
   117.25    0.222   0.222   0.231   0.222   0.231   0.235   0.232   0.226   0.222   0.231   0.234   0.234   0.230   0.230   0.228   0.216   0.226   0.226   0.219   0.228   0.227   0.221   0.209   0.211   0.220   0.229   0.226   0.224   0.242   0.259   0.259   0.246   0.251   0.243   0.244
   112.60    0.231   0.219   0.217   0.218   0.225   0.234   0.249   0.231   0.234   0.236   0.233   0.231   0.217   0.215   0.228   0.218   0.213   0.216   0.201   0.217   0.228   0.225   0.223   0.224   0.240   0.233   0.234   0.227   0.242   0.255   0.256   0.237   0.246   0.244   0.234
   107.95    0.219   0.218   0.217   0.212   0.221   0.230   0.240   0.225   0.221   0.236   0.241   0.233   0.232   0.228   0.223   0.226   0.217   0.220   0.209   0.220   0.225   0.223   0.221   0.230   0.237   0.226   0.239   0.235   0.230   0.240   0.236   0.247   0.239   0.246   0.237
   103.30    0.222   0.216   0.221   0.219   0.225   0.240   0.238   0.227   0.223   0.229   0.243   0.233   0.229   0.229   0.221   0.223   0.219   0.228   0.230   0.215   0.229   0.226   0.217   0.227   0.242   0.243   0.234   0.232   0.232   0.244   0.242   0.241   0.241   0.256   0.239
    98.65    0.213   0.222   0.220   0.217   0.226   0.233   0.229   0.223   0.229   0.232   0.244   0.252   0.240   0.223   0.226   0.228   0.220   0.226   0.235   0.222   0.221   0.220   0.226   0.230   0.237   0.240   0.235   0.229   0.237   0.236   0.247   0.248   0.254   0.264   0.249
    94.00    0.210   0.212   0.220   0.219   0.224   0.223   0.208   0.216   0.234   0.254   0.254   0.253   0.249   0.240   0.221   0.222   0.229   0.223   0.231   0.227   0.221   0.219   0.222   0.232   0.238   0.239   0.236   0.231   0.242   0.258   0.262   0.254   0.252   0.258   0.254
    89.35    0.223   0.209   0.218   0.219   0.212   0.209   0.211   0.217   0.237   0.249   0.243   0.248   0.243   0.237   0.234   0.237   0.229   0.217   0.224   0.232   0.213   0.222   0.223   0.228   0.242   0.240   0.240   0.243   0.248   0.259   0.261   0.254   0.258   0.261   0.254
    84.70    0.210   0.207   0.207   0.216   0.214   0.217   0.220   0.217   0.230   0.233   0.227   0.238   0.245   0.255   0.240   0.239   0.229   0.215   0.222   0.229   0.233   0.228   0.234   0.226   0.235   0.239   0.238   0.237   0.243   0.254   0.258   0.252   0.254   0.265   0.264
    80.05    0.194   0.197   0.213   0.206   0.207   0.211   0.209   0.201   0.216   0.223   0.216   0.229   0.239   0.238   0.230   0.228   0.231   0.222   0.234   0.234   0.225   0.228   0.231   0.225   0.238   0.239   0.230   0.239   0.251   0.250   0.261   0.254   0.252   0.248   0.244
    75.40    0.185   0.200   0.201   0.211   0.202   0.201   0.204   0.202   0.203   0.208   0.223   0.229   0.233   0.220   0.213   0.211   0.223   0.221   0.223   0.227   0.222   0.231   0.232   0.239   0.231   0.235   0.236   0.246   0.244   0.250   0.239   0.257   0.262   0.255   0.236
    70.75    0.194   0.195   0.211   0.214   0.215   0.209   0.204   0.195   0.204   0.217   0.222   0.235   0.226   0.225   0.229   0.228   0.235   0.217   0.225   0.223   0.225   0.237   0.237   0.235   0.243   0.234   0.233   0.247   0.241   0.244   0.248   0.248   0.263   0.244   0.246
    66.10    0.206   0.203   0.198   0.207   0.206   0.207   0.201   0.203   0.212   0.213   0.223   0.226   0.214   0.225   0.224   0.226   0.232   0.213   0.218   0.216   0.231   0.239   0.236   0.237   0.239   0.241   0.241   0.238   0.247   0.249   0.250   0.261   0.249   0.249   0.233
    61.45    0.201   0.194   0.192   0.201   0.199   0.194   0.197   0.200   0.208   0.208   0.222   0.225   0.221   0.224   0.233   0.232   0.227   0.217   0.228   0.228   0.229   0.237   0.241   0.237   0.240   0.246   0.232   0.221   0.240   0.235   0.250   0.250   0.241   0.235   0.222
    56.80    0.198   0.207   0.202   0.195   0.196   0.199   0.195   0.206   0.212   0.215   0.209   0.219   0.215   0.225   0.241   0.247   0.235   0.227   0.229   0.234   0.226   0.229   0.223   0.238   0.244   0.233   0.239   0.221   0.228   0.233   0.256   0.258   0.236   0.232   0.224
    52.15    0.204   0.205   0.194   0.193   0.189   0.196   0.186   0.202   0.214   0.210   0.209   0.213   0.202   0.219   0.238   0.245   0.237   0.223   0.226   0.230   0.225   0.231   0.242   0.246   0.239   0.238   0.232   0.240   0.242   0.247   0.249   0.246   0.256   0.230   0.216
    47.50    0.206   0.202   0.203   0.201   0.197   0.191   0.201   0.213   0.204   0.212   0.218   0.197   0.199   0.213   0.231   0.241   0.235   0.229   0.228   0.237   0.243   0.243   0.235   0.244   0.249   0.246   0.240   0.241   0.239   0.233   0.247   0.251   0.255   0.238   0.231
    42.85    0.215   0.202   0.203   0.208   0.202   0.191   0.195   0.190   0.200   0.211   0.221   0.205   0.206   0.211   0.225   0.233   0.229   0.231   0.227   0.233   0.229   0.242   0.232   0.234   0.246   0.249   0.236   0.244   0.234   0.247   0.248   0.249   0.228   0.235   0.237
    38.20    0.214   0.209   0.201   0.205   0.206   0.197   0.192   0.195   0.187   0.197   0.207   0.208   0.212   0.215   0.219   0.229   0.231   0.227   0.233   0.232   0.230   0.233   0.229   0.234   0.238   0.233   0.244   0.244   0.242   0.234   0.246   0.239   0.239   0.235   0.223
    33.55    0.211   0.208   0.193   0.201   0.200   0.195   0.197   0.196   0.194   0.190   0.199   0.202   0.211   0.221   0.231   0.231   0.235   0.238   0.232   0.238   0.233   0.224   0.223   0.226   0.227   0.225   0.235   0.241   0.237   0.220   0.235   0.234   0.238   0.230   0.226
    28.90    0.211   0.211   0.203   0.197   0.195   0.188   0.191   0.183   0.181   0.185   0.188   0.199   0.200   0.224   0.233   0.233   0.218   0.235   0.220   0.217   0.222   0.210   0.228   0.223   0.233   0.238   0.238   0.229   0.228   0.226   0.232   0.233   0.230   0.232   0.225
    24.25    0.220   0.209   0.210   0.208   0.189   0.187   0.178   0.186   0.179   0.187   0.194   0.202   0.216   0.224   0.230   0.227   0.218   0.218   0.210   0.212   0.207   0.209   0.232   0.232   0.222   0.241   0.238   0.227   0.227   0.219   0.221   0.229   0.225   0.227   0.225
    19.60    0.232   0.212   0.213   0.216   0.199   0.195   0.202   0.190   0.190   0.194   0.195   0.208   0.217   0.217   0.227   0.222   0.227   0.217   0.199   0.197   0.197   0.207   0.224   0.228   0.224   0.235   0.240   0.228   0.226   0.213   0.221   0.229   0.222   0.223   0.214
    14.95    0.226   0.214   0.204   0.212   0.196   0.192   0.191   0.190   0.199   0.198   0.196   0.209   0.213   0.224   0.231   0.235   0.231   0.211   0.212   0.196   0.208   0.210   0.221   0.231   0.228   0.236   0.228   0.223   0.220   0.211   0.225   0.223   0.221   0.225   0.214
    10.30    0.225   0.219   0.198   0.197   0.194   0.189   0.194   0.200   0.197   0.197   0.200   0.205   0.215   0.233   0.235   0.228   0.234   0.227   0.215   0.208   0.208   0.213   0.224   0.226   0.241   0.241   0.232   0.213   0.201   0.205   0.212   0.227   0.231   0.229   0.233
     5.65    0.230   0.221   0.200   0.196   0.187   0.191   0.205   0.200   0.204   0.204   0.202   0.224   0.234   0.242   0.249   0.230   0.230   0.226   0.222   0.216   0.218   0.207   0.214   0.222   0.232   0.237   0.229   0.216   0.209   0.216   0.218   0.222   0.230   0.227   0.233
     1.00    0.233   0.232   0.202   0.198   0.190   0.206   0.205   0.215   0.208   0.223   0.218   0.221   0.225   0.234   0.239   0.231   0.236   0.218   0.220   0.212   0.216   0.204   0.209   0.213   0.220   0.224   0.230   0.220   0.220   0.222   0.237   0.235   0.230   0.217   0.229

   Height   Standard deviation at grid points for the w component:
   168.40    0.161   0.162   0.168   0.163   0.157   0.151   0.148   0.150   0.149   0.145   0.152   0.151   0.157   0.161   0.156   0.155   0.153   0.153   0.147   0.150   0.154   0.155   0.149   0.156   0.147   0.143   0.134   0.139   0.143   0.145   0.148   0.147   0.148   0.146   0.143
   163.75    0.160   0.162   0.165   0.158   0.156   0.150   0.147   0.149   0.148   0.145   0.153   0.148   0.158   0.163   0.159   0.154   0.154   0.150   0.147   0.155   0.159   0.158   0.153   0.159   0.152   0.142   0.137   0.143   0.143   0.145   0.144   0.144   0.148   0.149   0.146
   159.10    0.161   0.160   0.165   0.161   0.153   0.151   0.152   0.147   0.149   0.152   0.147   0.150   0.162   0.158   0.160   0.154   0.149   0.148   0.149   0.152   0.157   0.149   0.152   0.154   0.153   0.142   0.147   0.148   0.146   0.150   0.139   0.141   0.150   0.147   0.143
   154.45    0.153   0.153   0.151   0.155   0.147   0.149   0.148   0.150   0.149   0.153   0.154   0.150   0.156   0.157   0.159   0.152   0.151   0.148   0.151   0.147   0.148   0.154   0.150   0.157   0.155   0.148   0.147   0.149   0.145   0.146   0.145   0.142   0.149   0.145   0.148
   149.80    0.150   0.152   0.153   0.152   0.146   0.144   0.142   0.145   0.150   0.150   0.151   0.148   0.156   0.149   0.147   0.146   0.150   0.149   0.150   0.153   0.149   0.150   0.151   0.154   0.148   0.149   0.148   0.151   0.148   0.151   0.146   0.149   0.148   0.143   0.148
   145.15    0.149   0.150   0.148   0.148   0.151   0.149   0.147   0.150   0.147   0.151   0.152   0.147   0.156   0.157   0.153   0.153   0.155   0.155   0.150   0.149   0.146   0.143   0.140   0.144   0.146   0.145   0.146   0.147   0.148   0.143   0.149   0.145   0.149   0.150   0.147
   140.50    0.147   0.148   0.145   0.141   0.144   0.144   0.141   0.143   0.149   0.150   0.149   0.146   0.151   0.158   0.154   0.148   0.150   0.151   0.150   0.146   0.150   0.143   0.141   0.142   0.146   0.148   0.149   0.145   0.149   0.145   0.146   0.145   0.143   0.144   0.149
   135.85    0.143   0.146   0.146   0.144   0.139   0.145   0.146   0.144   0.149   0.148   0.150   0.151   0.149   0.150   0.148   0.150   0.149   0.151   0.147   0.143   0.146   0.143   0.138   0.145   0.148   0.144   0.145   0.140   0.149   0.142   0.144   0.147   0.146   0.142   0.145
   131.20    0.143   0.143   0.142   0.142   0.143   0.144   0.145   0.146   0.146   0.157   0.151   0.157   0.155   0.153   0.146   0.150   0.153   0.152   0.153   0.149   0.143   0.148   0.141   0.141   0.141   0.139   0.141   0.144   0.149   0.143   0.147   0.145   0.139   0.147   0.141
   126.55    0.146   0.148   0.144   0.139   0.142   0.145   0.143   0.144   0.154   0.163   0.158   0.157   0.154   0.157   0.156   0.148   0.148   0.151   0.148   0.146   0.148   0.144   0.143   0.146   0.141   0.146   0.139   0.144   0.149   0.150   0.144   0.144   0.144   0.143   0.142
   121.90    0.151   0.150   0.151   0.149   0.147   0.145   0.149   0.149   0.158   0.161   0.159   0.154   0.153   0.147   0.150   0.150   0.152   0.146   0.143   0.143   0.146   0.142   0.148   0.142   0.143   0.149   0.148   0.143   0.148   0.151   0.153   0.147   0.148   0.141   0.140
   117.25    0.160   0.154   0.157   0.154   0.153   0.147   0.147   0.149   0.160   0.155   0.155   0.152   0.153   0.151   0.155   0.154   0.147   0.140   0.142   0.145   0.149   0.146   0.145   0.144   0.147   0.149   0.150   0.142   0.144   0.147   0.148   0.151   0.149   0.146   0.146
   112.60    0.156   0.157   0.155   0.152   0.152   0.151   0.148   0.149   0.153   0.156   0.153   0.155   0.156   0.157   0.158   0.155   0.148   0.143   0.140   0.140   0.143   0.144   0.143   0.149   0.146   0.152   0.149   0.147   0.144   0.142   0.145   0.148   0.148   0.143   0.145
   107.95    0.156   0.156   0.153   0.149   0.148   0.153   0.148   0.148   0.150   0.145   0.156   0.159   0.151   0.151   0.150   0.153   0.147   0.145   0.144   0.146   0.142   0.136   0.143   0.140   0.144   0.151   0.150   0.145   0.148   0.146   0.143   0.140   0.138   0.137   0.141
   103.30    0.153   0.156   0.152   0.147   0.143   0.146   0.148   0.151   0.149   0.149   0.156   0.156   0.158   0.157   0.157   0.157   0.150   0.147   0.143   0.149   0.143   0.135   0.138   0.142   0.141   0.145   0.145   0.151   0.149   0.148   0.144   0.139   0.138   0.138   0.143
    98.65    0.147   0.144   0.142   0.145   0.145   0.152   0.146   0.151   0.149   0.155   0.153   0.156   0.154   0.151   0.156   0.160   0.153   0.146   0.146   0.145   0.146   0.141   0.137   0.140   0.142   0.145   0.144   0.144   0.146   0.145   0.144   0.144   0.147   0.136   0.143
    94.00    0.139   0.146   0.142   0.146   0.150   0.145   0.144   0.145   0.145   0.151   0.151   0.152   0.152   0.156   0.155   0.158   0.150   0.146   0.149   0.143   0.150   0.149   0.142   0.145   0.142   0.144   0.150   0.145   0.140   0.141   0.138   0.144   0.144   0.146   0.150
    89.35    0.145   0.145   0.143   0.146   0.143   0.141   0.148   0.143   0.149   0.150   0.151   0.148   0.147   0.156   0.150   0.155   0.155   0.150   0.151   0.153   0.143   0.143   0.148   0.149   0.145   0.145   0.143   0.144   0.144   0.143   0.140   0.144   0.148   0.147   0.143
    84.70    0.145   0.146   0.148   0.147   0.148   0.149   0.148   0.148   0.153   0.154   0.153   0.146   0.149   0.152   0.151   0.156   0.158   0.155   0.147   0.149   0.145   0.141   0.147   0.143   0.144   0.147   0.142   0.139   0.137   0.138   0.147   0.147   0.145   0.139   0.144
    80.05    0.150   0.150   0.146   0.152   0.146   0.148   0.152   0.153   0.150   0.154   0.154   0.149   0.151   0.151   0.156   0.158   0.155   0.157   0.158   0.150   0.147   0.142   0.141   0.141   0.142   0.143   0.137   0.138   0.142   0.135   0.143   0.146   0.144   0.140   0.139
    75.40    0.148   0.144   0.145   0.145   0.148   0.144   0.152   0.153   0.157   0.158   0.153   0.153   0.153   0.155   0.159   0.154   0.159   0.155   0.152   0.151   0.146   0.143   0.143   0.147   0.141   0.139   0.135   0.139   0.131   0.141   0.141   0.138   0.139   0.137   0.140
    70.75    0.148   0.145   0.149   0.141   0.146   0.148   0.151   0.156   0.158   0.156   0.157   0.153   0.157   0.152   0.155   0.154   0.160   0.155   0.151   0.151   0.144   0.143   0.145   0.141   0.140   0.135   0.139   0.135   0.131   0.132   0.139   0.135   0.127   0.129   0.134
    66.10    0.150   0.152   0.146   0.146   0.150   0.154   0.155   0.154   0.161   0.160   0.158   0.156   0.150   0.154   0.153   0.152   0.157   0.162   0.152   0.153   0.146   0.143   0.136   0.142   0.142   0.142   0.137   0.130   0.131   0.128   0.130   0.126   0.122   0.130   0.135
    61.45    0.148   0.155   0.148   0.148   0.148   0.149   0.151   0.157   0.156   0.161   0.157   0.155   0.150   0.151   0.151   0.150   0.154   0.155   0.156   0.151   0.143   0.145   0.142   0.144   0.144   0.147   0.138   0.133   0.130   0.127   0.129   0.125   0.128   0.132   0.135
    56.80    0.148   0.146   0.150   0.146   0.148   0.146   0.151   0.152   0.148   0.156   0.155   0.148   0.152   0.146   0.148   0.147   0.154   0.156   0.160   0.150   0.152   0.139   0.144   0.141   0.146   0.143   0.143   0.135   0.134   0.133   0.134   0.130   0.137   0.134   0.132
    52.15    0.144   0.144   0.144   0.149   0.147   0.146   0.147   0.147   0.156   0.157   0.153   0.149   0.144   0.153   0.153   0.151   0.154   0.157   0.154   0.151   0.146   0.146   0.144   0.145   0.146   0.146   0.146   0.143   0.138   0.138   0.131   0.135   0.135   0.135   0.136
    47.50    0.140   0.145   0.143   0.147   0.145   0.145   0.143   0.144   0.146   0.146   0.152   0.153   0.146   0.145   0.150   0.147   0.150   0.150   0.154   0.150   0.148   0.146   0.150   0.144   0.145   0.144   0.150   0.141   0.131   0.129   0.131   0.135   0.135   0.135   0.139
    42.85    0.142   0.142   0.145   0.149   0.140   0.143   0.143   0.142   0.147   0.151   0.144   0.151   0.151   0.141   0.145   0.145   0.143   0.148   0.152   0.152   0.145   0.148   0.152   0.145   0.149   0.146   0.142   0.140   0.130   0.133   0.130   0.138   0.137   0.143   0.141
    38.20    0.139   0.144   0.147   0.146   0.142   0.143   0.145   0.141   0.146   0.146   0.152   0.151   0.150   0.146   0.142   0.143   0.147   0.148   0.143   0.145   0.146   0.143   0.144   0.147   0.152   0.143   0.136   0.133   0.139   0.137   0.138   0.140   0.139   0.137   0.144
    33.55    0.140   0.143   0.143   0.147   0.142   0.137   0.145   0.143   0.147   0.151   0.143   0.142   0.144   0.137   0.138   0.144   0.141   0.144   0.140   0.142   0.142   0.141   0.146   0.148   0.149   0.142   0.140   0.139   0.139   0.144   0.147   0.145   0.142   0.140   0.146
    28.90    0.141   0.143   0.145   0.147   0.147   0.140   0.142   0.142   0.141   0.147   0.139   0.146   0.141   0.139   0.142   0.140   0.140   0.139   0.141   0.142   0.148   0.144   0.150   0.148   0.149   0.146   0.143   0.138   0.147   0.148   0.151   0.144   0.143   0.141   0.148
    24.25    0.143   0.147   0.144   0.144   0.150   0.144   0.141   0.143   0.147   0.146   0.146   0.141   0.142   0.138   0.143   0.142   0.142   0.140   0.148   0.148   0.148   0.147   0.144   0.145   0.144   0.142   0.139   0.140   0.144   0.145   0.151   0.149   0.146   0.150   0.148
    19.60    0.143   0.140   0.143   0.145   0.144   0.146   0.143   0.145   0.147   0.145   0.146   0.141   0.144   0.145   0.145   0.142   0.143   0.142   0.138   0.143   0.147   0.146   0.152   0.142   0.143   0.145   0.140   0.140   0.148   0.145   0.153   0.156   0.160   0.165   0.169
    14.95    0.145   0.147   0.147   0.151   0.147   0.146   0.146   0.139   0.137   0.143   0.147   0.140   0.138   0.139   0.140   0.141   0.136   0.139   0.137   0.145   0.150   0.146   0.142   0.152   0.146   0.143   0.148   0.148   0.146   0.151   0.157   0.156   0.155   0.163   0.167
    10.30    0.149   0.156   0.154   0.155   0.150   0.141   0.144   0.142   0.140   0.142   0.141   0.138   0.139   0.141   0.139   0.134   0.133   0.137   0.140   0.148   0.148   0.141   0.147   0.146   0.142   0.144   0.145   0.147   0.149   0.150   0.152   0.152   0.153   0.159   0.168
     5.65    0.148   0.151   0.155   0.158   0.155   0.144   0.144   0.141   0.139   0.140   0.146   0.142   0.143   0.144   0.141   0.140   0.139   0.142   0.144   0.148   0.153   0.152   0.149   0.142   0.142   0.142   0.148   0.147   0.148   0.151   0.152   0.149   0.148   0.157   0.162
     1.00    0.144   0.149   0.149   0.150   0.152   0.152   0.147   0.146   0.145   0.145   0.144   0.143   0.143   0.143   0.145   0.146   0.141   0.151   0.148   0.153   0.154   0.146   0.144   0.140   0.143   0.148   0.148   0.150   0.151   0.149   0.150   0.150   0.155   0.152   0.158

   Mean standard deviation across all grid points:
      u component:    0.353 m/s
      v component:    0.226 m/s
      w component:    0.147 m/s


U-component (X) statistics from the interpolated hub point:

   Mean =   9.9913 m/s
   TI   =   3.2313 %


Processing complete.  6270.6 CPU seconds used.
