
This summary file was generated by TurbSim (from OpenFAST-v3.5.3) on 19-Apr-2025 at 21:25:15.


Runtime Options:

**********  Random seed #1
    RANLUX  Type of random number generator
         F  Output binary HH turbulence parameters?
         F  Output formatted turbulence parameters?
         F  Output AeroDyn HH files?
         T  Output AeroDyn FF files?
         F  Output BLADED FF files?
         F  Output tower data?
         F  Output HAWC FF files?
         F  Output formatted FF files?
         T  Output coherent turbulence time step file?
 0 -  NONE  IEC turbulence models scaled to exact specified standard deviation


Turbine/Model Specifications:

        39  Vertical grid-point matrix dimension
       193  Horizontal grid-point matrix dimension
     0.250  Time step [seconds]
   900.000  Analysis time [seconds]
   900.000  Usable output time [seconds]
   177.700  Hub height [m]
   353.400  Grid height [m]
  1785.600  Grid width [m]
     0.000  Vertical flow angle [degrees]
     0.000  Horizontal flow angle [degrees]


Meteorological Boundary Conditions:

    IECKAI  IEC Kaimal spectral model
         1  IEC standard: IEC 61400-1 Ed. 3: 2005
     4.000  Percent turbulence intensity, IEC 61400-1 Ed. 3: 2005
       NTM  IEC Normal Turbulence Model
       N/A  IEC Extreme Turbulence Model (ETM) "c" parameter [m/s]
       USR  Wind profile type
    90.000  Reference height [m]
       N/A  Reference wind speed [m/s]
       N/A  Jet height [m]
       N/A  Power law exponent
     0.030  Surface roughness length [m]


Non-IEC Meteorological Boundary Conditions:

       N/A  Site latitude [degrees]
       N/A  Gradient Richardson number
       N/A  Friction or shear velocity [m/s]
       N/A  Mixing layer depth [m]
       N/A  Mean hub u'w' Reynolds stress
       N/A  Mean hub u'v' Reynolds stress
       N/A  Mean hub v'w' Reynolds stress


Spatial Coherence Models:

       IEC  u-component coherence model
       IEC  v-component coherence model
       IEC  w-component coherence model
(   12.000, 0.353E-03)  u-component coherence parameters
(   12.000, 0.353E-03)  v-component coherence parameters
(   12.000, 0.353E-03)  w-component coherence parameters
       N/A  Coherence exponent


User-Defined Profiles:

  Height   Wind Speed   Horizontal Angle
   (m)        (m/s)          (deg)      
  ------   ----------   ----------------
  353.40      10.00         318.19
  334.80      10.00         321.14
  316.20      10.00         324.10
  297.60      10.00         327.05
  279.00      10.00         330.00
  260.40      10.00         332.95
  241.80      10.00         335.90
  223.20      10.00         338.86
  204.60      10.00         341.81
  186.00      10.00         344.76
  167.40      10.00         347.71
  148.80      10.00         350.67
  130.20      10.00         353.62
  111.60      10.00         356.57
   93.00      10.00         359.52
   74.40      10.00           2.48
   55.80      10.00           5.43
   37.20      10.00           8.38
   18.60      10.00          11.33
    0.00      10.00          14.29


You have requested that the following file(s) be generated:

   /kfs3/scratch/agupta/Projects/RL_Incubator/FinalRuns_Veer/Seed4/./FFSim_Seed4/Cond00_v10.0_PL0.12_TI4.0/Seed_3/Low.bts (AeroDyn/TurbSim full-field wind file)


Turbulence Simulation Scaling Parameter Summary:

   Turbulence model used                            =  IEC Kaimal
   Turbulence characteristic                        =  User-specified
   IEC standard                                     =  IEC 61400-1 Ed. 3: 2005
   Mean wind speed at hub height                    =   10.000 m/s
   Characteristic value of standard deviation       =    0.400 m/s
   Turbulence scale                                 =   42.000 m
   u-component integral scale                       =  340.200 m
   Coherency scale                                  =  340.200 m
   Characteristic value of hub turbulence intensity =    4.000%
   Gradient Richardson number                       =    0.000

   Wind profile type                                =  Linear interpolation of user-defined profile
   Equivalent power law exponent (upper rotor disk) =    0.000
   Mean shear across rotor disk                     =    0.000 (m/s)/m
   Assumed rotor diameter                           =  353.400 m
   Surface roughness length                         =    0.030 m

   Nyquist frequency of turbulent wind field        =    2.000 Hz

   Number of time steps in the FFT                  =     3600
   Number of time steps output                      =     3600
   Number of points simulated                       =     7527


Mean Flow Angles:

   Vertical   =   0.0 degrees
   Horizontal =   0.0 degrees

Mean Wind Speed Profile:

   Height    Wind Speed   Horizontal Angle  Vertical Angle  U-comp (X)   V-comp (Y)   W-comp (Z)
     (m)        (m/s)         (degrees)       (degrees)       (m/s)        (m/s)        (m/s)   
   ------    ----------   ----------------  --------------  ----------   ----------   ----------
    354.4       10.00          318.19            0.00          7.45        -6.67         0.00
    345.1       10.00          319.51            0.00          7.60        -6.49         0.00
    335.8       10.00          320.98            0.00          7.77        -6.30         0.00
    326.5       10.00          322.46            0.00          7.93        -6.09         0.00
    317.2       10.00          323.94            0.00          8.08        -5.89         0.00
    307.9       10.00          325.41            0.00          8.23        -5.68         0.00
    298.6       10.00          326.89            0.00          8.38        -5.46         0.00
    289.3       10.00          328.37            0.00          8.51        -5.25         0.00
    280.0       10.00          329.84            0.00          8.65        -5.02         0.00
    270.7       10.00          331.32            0.00          8.77        -4.80         0.00
    261.4       10.00          332.79            0.00          8.89        -4.57         0.00
    252.1       10.00          334.27            0.00          9.01        -4.34         0.00
    242.8       10.00          335.75            0.00          9.12        -4.11         0.00
    233.5       10.00          337.22            0.00          9.22        -3.87         0.00
    224.2       10.00          338.70            0.00          9.32        -3.63         0.00
    214.9       10.00          340.17            0.00          9.41        -3.39         0.00
    205.6       10.00          341.65            0.00          9.49        -3.15         0.00
    196.3       10.00          343.13            0.00          9.57        -2.90         0.00
    187.0       10.00          344.60            0.00          9.64        -2.66         0.00
    177.7       10.00          346.08            0.00          9.71        -2.41         0.00
    168.4       10.00          347.56            0.00          9.77        -2.15         0.00
    159.1       10.00          349.03            0.00          9.82        -1.90         0.00
    149.8       10.00          350.51            0.00          9.86        -1.65         0.00
    140.5       10.00          351.98            0.00          9.90        -1.39         0.00
    131.2       10.00          353.46            0.00          9.93        -1.14         0.00
    121.9       10.00          354.94            0.00          9.96        -0.88         0.00
    112.6       10.00          356.41            0.00          9.98        -0.63         0.00
    103.3       10.00          357.89            0.00          9.99        -0.37         0.00
     94.0       10.00          359.37            0.00         10.00        -0.11         0.00
     84.7       10.00          360.84            0.00         10.00         0.15         0.00
     75.4       10.00          362.32            0.00          9.99         0.40         0.00
     66.1       10.00            3.79            0.00          9.98         0.66         0.00
     56.8       10.00            5.27            0.00          9.96         0.92         0.00
     47.5       10.00            6.75            0.00          9.93         1.17         0.00
     38.2       10.00            8.22            0.00          9.90         1.43         0.00
     28.9       10.00            9.70            0.00          9.86         1.68         0.00
     19.6       10.00           11.17            0.00          9.81         1.94         0.00
     10.3       10.00           12.65            0.00          9.76         2.19         0.00
      1.0       10.00           14.13            0.00          9.70         2.44         0.00


Harvested Random Seeds after Generation of the Random Numbers:

    377667225 K 1
            0 K 2


Hub-Height Simulated Turbulence Statistical Summary:

   Type of Wind        Min (m/s)   Mean (m/s)    Max (m/s)  Sigma (m/s)       TI (%)
   ----------------    ---------   ----------    ---------  -----------       ------
   Longitudinal (u)         8.89        10.00        11.09        0.371        3.715
   Lateral (v)             -1.00         0.00         1.21        0.304        3.038
   Vertical (w)            -0.74         0.00         0.69        0.193        1.935
   U component              8.65         9.71        10.83        0.373        3.841
   V component             -3.48        -2.41        -1.23        0.302        3.113
   W component             -0.74         0.00         0.69        0.193        1.993
   Horizontal (U&V)         8.89        10.00        11.09        0.371        3.711
   Total                    8.89        10.01        11.09        0.371        3.711

                       Min Reynolds     Mean Reynolds    Max Reynolds    Correlation
   Product             Stress (m/s)^2   Stress (m/s)^2   Stress (m/s)^2  Coefficient
   ----------------    --------------   --------------   --------------  -----------
   u'w'                     -0.422             0.002             0.361         0.035
   u'v'                     -0.684             0.008             0.543         0.069
   v'w'                     -0.372             0.004             0.419         0.070


   Friction Velocity (Ustar)  =      0.050 m/s
   Maximum Instantaneous TKE  =      0.770 (m/s)^2
   Maximum Instantaneous CTKE =      0.342 (m/s)^2


Grid Point Variance Summary:

   Y-coord -892.80 -883.50 -874.20 -864.90 -855.60 -846.30 -837.00 -827.70 -818.40 -809.10 -799.80 -790.50 -781.20 -771.90 -762.60 -753.30 -744.00 -734.70 -725.40 -716.10 -706.80 -697.50 -688.20 -678.90 -669.60 -660.30 -651.00 -641.70 -632.40 -623.10 -613.80 -604.50 -595.20 -585.90 -576.60 -567.30 -558.00 -548.70 -539.40 -530.10 -520.80 -511.50 -502.20 -492.90 -483.60 -474.30 -465.00 -455.70 -446.40 -437.10 -427.80 -418.50 -409.20 -399.90 -390.60 -381.30 -372.00 -362.70 -353.40 -344.10 -334.80 -325.50 -316.20 -306.90 -297.60 -288.30 -279.00 -269.70 -260.40 -251.10 -241.80 -232.50 -223.20 -213.90 -204.60 -195.30 -186.00 -176.70 -167.40 -158.10 -148.80 -139.50 -130.20 -120.90 -111.60 -102.30  -93.00  -83.70  -74.40  -65.10  -55.80  -46.50  -37.20  -27.90  -18.60   -9.30    0.00    9.30   18.60   27.90   37.20   46.50   55.80   65.10   74.40   83.70   93.00  102.30  111.60  120.90  130.20  139.50  148.80  158.10  167.40  176.70  186.00  195.30  204.60  213.90  223.20  232.50  241.80  251.10  260.40  269.70  279.00  288.30  297.60  306.90  316.20  325.50  334.80  344.10  353.40  362.70  372.00  381.30  390.60  399.90  409.20  418.50  427.80  437.10  446.40  455.70  465.00  474.30  483.60  492.90  502.20  511.50  520.80  530.10  539.40  548.70  558.00  567.30  576.60  585.90  595.20  604.50  613.80  623.10  632.40  641.70  651.00  660.30  669.60  678.90  688.20  697.50  706.80  716.10  725.40  734.70  744.00  753.30  762.60  771.90  781.20  790.50  799.80  809.10  818.40  827.70  837.00  846.30  855.60  864.90  874.20  883.50  892.80

   Height   Standard deviation at grid points for the u component:
   354.40    0.401   0.426   0.416   0.430   0.431   0.440   0.446   0.419   0.396   0.372   0.407   0.420   0.433   0.422   0.373   0.402   0.411   0.380   0.352   0.356   0.358   0.362   0.358   0.355   0.369   0.384   0.385   0.369   0.381   0.349   0.368   0.375   0.372   0.370   0.361   0.339   0.378   0.378   0.376   0.412   0.418   0.384   0.397   0.398   0.392   0.391   0.375   0.372   0.380   0.390   0.381   0.380   0.388   0.412   0.432   0.438   0.431   0.403   0.406   0.403   0.379   0.376   0.379   0.377   0.375   0.390   0.404   0.413   0.387   0.417   0.404   0.431   0.417   0.409   0.413   0.410   0.428   0.434   0.424   0.408   0.420   0.422   0.386   0.395   0.377   0.376   0.348   0.336   0.319   0.315   0.332   0.340   0.336   0.338   0.339   0.331   0.359   0.351   0.366   0.404   0.389   0.390   0.396   0.386   0.342   0.342   0.369   0.358   0.352   0.374   0.383   0.392   0.378   0.382   0.383   0.403   0.424   0.408   0.422   0.408   0.414   0.444   0.429   0.400   0.426   0.421   0.384   0.392   0.395   0.375   0.412   0.430   0.418   0.411   0.408   0.394   0.409   0.392   0.414   0.426   0.419   0.444   0.444   0.433   0.419   0.427   0.441   0.427   0.427   0.434   0.422   0.416   0.424   0.411   0.436   0.419   0.414   0.406   0.417   0.460   0.493   0.533   0.569   0.554   0.520   0.527   0.474   0.488   0.509   0.486   0.489   0.511   0.496   0.505   0.474   0.445   0.448   0.457   0.457   0.436   0.444   0.442   0.445   0.427   0.412   0.438   0.451   0.434   0.412   0.386   0.391   0.417   0.408
   345.10    0.380   0.392   0.430   0.432   0.424   0.441   0.420   0.401   0.379   0.359   0.380   0.410   0.420   0.422   0.391   0.381   0.419   0.409   0.382   0.371   0.369   0.367   0.369   0.358   0.365   0.370   0.376   0.385   0.373   0.355   0.396   0.382   0.406   0.384   0.369   0.350   0.376   0.376   0.394   0.408   0.416   0.395   0.388   0.403   0.397   0.398   0.384   0.392   0.408   0.390   0.387   0.394   0.432   0.421   0.438   0.454   0.431   0.391   0.398   0.401   0.392   0.383   0.369   0.368   0.379   0.381   0.404   0.410   0.415   0.419   0.429   0.431   0.423   0.398   0.399   0.400   0.407   0.429   0.421   0.404   0.408   0.417   0.407   0.406   0.392   0.371   0.368   0.347   0.335   0.349   0.345   0.342   0.349   0.332   0.342   0.341   0.352   0.348   0.360   0.392   0.386   0.402   0.396   0.360   0.343   0.338   0.350   0.382   0.361   0.366   0.354   0.365   0.342   0.369   0.407   0.416   0.414   0.426   0.419   0.399   0.408   0.407   0.387   0.408   0.434   0.406   0.391   0.392   0.376   0.387   0.399   0.417   0.408   0.413   0.434   0.426   0.429   0.428   0.446   0.441   0.427   0.449   0.420   0.424   0.395   0.422   0.443   0.448   0.454   0.430   0.436   0.422   0.436   0.424   0.451   0.452   0.423   0.414   0.451   0.478   0.506   0.546   0.561   0.541   0.531   0.512   0.477   0.490   0.481   0.476   0.504   0.522   0.506   0.527   0.504   0.455   0.426   0.441   0.480   0.448   0.446   0.458   0.418   0.419   0.440   0.416   0.417   0.403   0.393   0.375   0.392   0.390   0.417
   335.80    0.392   0.389   0.415   0.442   0.415   0.415   0.407   0.419   0.389   0.382   0.404   0.415   0.433   0.419   0.393   0.404   0.403   0.395   0.379   0.383   0.387   0.366   0.360   0.368   0.351   0.337   0.365   0.365   0.374   0.384   0.397   0.394   0.385   0.371   0.347   0.345   0.360   0.363   0.382   0.386   0.380   0.375   0.379   0.402   0.393   0.395   0.419   0.432   0.405   0.407   0.401   0.390   0.414   0.442   0.449   0.452   0.428   0.421   0.400   0.422   0.414   0.395   0.369   0.356   0.370   0.372   0.369   0.426   0.393   0.436   0.413   0.415   0.427   0.404   0.405   0.370   0.395   0.410   0.397   0.398   0.423   0.416   0.409   0.398   0.381   0.375   0.353   0.361   0.349   0.358   0.381   0.346   0.348   0.322   0.334   0.338   0.329   0.357   0.358   0.353   0.387   0.381   0.387   0.375   0.334   0.319   0.339   0.349   0.351   0.347   0.373   0.367   0.375   0.391   0.409   0.401   0.418   0.438   0.416   0.401   0.387   0.401   0.384   0.409   0.395   0.391   0.397   0.378   0.375   0.375   0.394   0.402   0.395   0.407   0.395   0.421   0.417   0.452   0.456   0.427   0.452   0.421   0.400   0.423   0.400   0.415   0.435   0.469   0.451   0.460   0.441   0.426   0.421   0.420   0.409   0.423   0.391   0.424   0.441   0.442   0.495   0.515   0.514   0.531   0.523   0.518   0.505   0.487   0.486   0.476   0.513   0.520   0.499   0.531   0.521   0.500   0.451   0.469   0.465   0.473   0.447   0.457   0.428   0.434   0.459   0.435   0.428   0.392   0.376   0.339   0.366   0.379   0.424
   326.50    0.385   0.395   0.410   0.405   0.406   0.397   0.411   0.408   0.415   0.404   0.420   0.406   0.392   0.423   0.419   0.435   0.432   0.434   0.392   0.399   0.392   0.372   0.353   0.349   0.330   0.322   0.336   0.360   0.359   0.385   0.390   0.397   0.382   0.363   0.355   0.334   0.355   0.356   0.365   0.355   0.372   0.366   0.375   0.391   0.401   0.382   0.401   0.433   0.439   0.410   0.385   0.405   0.387   0.399   0.404   0.444   0.433   0.419   0.404   0.402   0.417   0.407   0.364   0.354   0.381   0.422   0.400   0.419   0.418   0.426   0.420   0.395   0.433   0.434   0.402   0.389   0.407   0.406   0.384   0.386   0.392   0.402   0.389   0.386   0.380   0.353   0.345   0.348   0.358   0.333   0.336   0.339   0.345   0.327   0.329   0.328   0.316   0.343   0.339   0.364   0.385   0.376   0.366   0.359   0.334   0.294   0.345   0.338   0.356   0.375   0.367   0.363   0.393   0.387   0.392   0.394   0.421   0.412   0.399   0.414   0.376   0.395   0.382   0.375   0.398   0.397   0.390   0.382   0.397   0.404   0.380   0.402   0.373   0.396   0.363   0.422   0.419   0.414   0.412   0.423   0.459   0.445   0.438   0.414   0.405   0.418   0.408   0.435   0.477   0.433   0.439   0.430   0.431   0.414   0.444   0.471   0.438   0.427   0.422   0.435   0.446   0.492   0.488   0.489   0.525   0.516   0.507   0.502   0.493   0.502   0.517   0.534   0.524   0.509   0.512   0.490   0.448   0.460   0.443   0.445   0.427   0.414   0.424   0.403   0.418   0.420   0.390   0.364   0.356   0.352   0.355   0.399   0.404
   317.20    0.390   0.416   0.420   0.386   0.380   0.390   0.363   0.367   0.390   0.369   0.386   0.420   0.427   0.434   0.416   0.396   0.419   0.426   0.409   0.394   0.411   0.398   0.384   0.356   0.330   0.345   0.323   0.332   0.352   0.364   0.392   0.359   0.355   0.330   0.325   0.335   0.313   0.339   0.348   0.359   0.346   0.375   0.385   0.413   0.419   0.405   0.397   0.422   0.447   0.418   0.403   0.403   0.385   0.409   0.402   0.422   0.423   0.430   0.384   0.392   0.378   0.372   0.383   0.366   0.385   0.400   0.396   0.419   0.394   0.413   0.406   0.424   0.409   0.436   0.407   0.409   0.403   0.384   0.375   0.377   0.377   0.393   0.383   0.365   0.381   0.349   0.359   0.362   0.349   0.350   0.342   0.323   0.340   0.330   0.338   0.329   0.333   0.359   0.362   0.365   0.388   0.403   0.403   0.368   0.342   0.328   0.359   0.348   0.346   0.358   0.376   0.381   0.385   0.392   0.394   0.367   0.384   0.407   0.404   0.390   0.374   0.376   0.360   0.364   0.388   0.389   0.376   0.388   0.396   0.374   0.375   0.361   0.346   0.358   0.372   0.396   0.380   0.380   0.388   0.393   0.405   0.439   0.456   0.421   0.389   0.405   0.406   0.438   0.465   0.460   0.464   0.451   0.442   0.427   0.404   0.421   0.420   0.423   0.446   0.440   0.462   0.452   0.499   0.516   0.516   0.507   0.534   0.503   0.499   0.483   0.492   0.528   0.496   0.521   0.515   0.484   0.470   0.451   0.427   0.428   0.412   0.418   0.432   0.413   0.402   0.370   0.382   0.344   0.336   0.365   0.359   0.375   0.423
   307.90    0.394   0.398   0.426   0.409   0.412   0.398   0.365   0.384   0.372   0.383   0.406   0.417   0.427   0.421   0.398   0.394   0.410   0.422   0.424   0.398   0.392   0.379   0.383   0.353   0.350   0.330   0.310   0.329   0.340   0.357   0.380   0.382   0.347   0.341   0.323   0.326   0.326   0.335   0.372   0.385   0.384   0.402   0.385   0.404   0.384   0.376   0.401   0.439   0.443   0.437   0.391   0.384   0.383   0.398   0.396   0.417   0.413   0.406   0.389   0.382   0.363   0.373   0.383   0.389   0.360   0.397   0.425   0.422   0.423   0.400   0.399   0.416   0.412   0.397   0.418   0.382   0.388   0.357   0.358   0.379   0.371   0.358   0.359   0.365   0.367   0.366   0.329   0.350   0.345   0.335   0.322   0.336   0.337   0.322   0.346   0.354   0.355   0.363   0.372   0.389   0.376   0.376   0.389   0.373   0.360   0.325   0.348   0.362   0.355   0.379   0.362   0.376   0.349   0.369   0.374   0.375   0.368   0.364   0.398   0.368   0.378   0.371   0.386   0.393   0.378   0.412   0.385   0.360   0.368   0.353   0.369   0.359   0.308   0.338   0.358   0.382   0.360   0.385   0.386   0.394   0.422   0.430   0.427   0.401   0.380   0.394   0.441   0.448   0.462   0.458   0.458   0.455   0.451   0.445   0.400   0.397   0.403   0.433   0.433   0.441   0.431   0.455   0.489   0.472   0.489   0.484   0.524   0.526   0.524   0.495   0.481   0.499   0.519   0.511   0.508   0.479   0.457   0.437   0.425   0.404   0.419   0.413   0.406   0.379   0.379   0.370   0.352   0.367   0.359   0.366   0.359   0.355   0.383
   298.60    0.394   0.387   0.397   0.414   0.417   0.394   0.358   0.360   0.354   0.376   0.390   0.411   0.402   0.400   0.392   0.391   0.412   0.416   0.412   0.422   0.410   0.378   0.352   0.373   0.343   0.353   0.318   0.352   0.344   0.358   0.352   0.370   0.339   0.328   0.312   0.326   0.349   0.365   0.384   0.395   0.406   0.393   0.404   0.391   0.356   0.339   0.371   0.388   0.419   0.422   0.400   0.385   0.363   0.384   0.392   0.378   0.381   0.400   0.394   0.384   0.361   0.369   0.395   0.365   0.398   0.390   0.397   0.408   0.396   0.408   0.418   0.398   0.402   0.383   0.368   0.394   0.358   0.360   0.364   0.355   0.343   0.332   0.333   0.353   0.351   0.348   0.353   0.356   0.347   0.311   0.317   0.335   0.329   0.359   0.360   0.350   0.356   0.359   0.363   0.369   0.366   0.384   0.402   0.413   0.377   0.375   0.378   0.375   0.353   0.365   0.362   0.361   0.351   0.365   0.362   0.377   0.367   0.351   0.373   0.357   0.365   0.380   0.375   0.382   0.383   0.381   0.369   0.356   0.357   0.354   0.359   0.327   0.305   0.341   0.368   0.419   0.357   0.379   0.396   0.380   0.410   0.427   0.403   0.352   0.371   0.414   0.441   0.439   0.444   0.462   0.442   0.427   0.440   0.442   0.387   0.387   0.397   0.420   0.411   0.432   0.416   0.445   0.467   0.454   0.450   0.468   0.496   0.508   0.515   0.492   0.501   0.511   0.498   0.482   0.492   0.477   0.487   0.470   0.419   0.396   0.412   0.408   0.384   0.360   0.352   0.351   0.379   0.357   0.364   0.363   0.373   0.385   0.381
   289.30    0.388   0.375   0.401   0.395   0.407   0.392   0.376   0.372   0.358   0.382   0.368   0.378   0.394   0.385   0.378   0.371   0.413   0.420   0.396   0.415   0.394   0.394   0.373   0.352   0.342   0.345   0.325   0.336   0.351   0.358   0.385   0.366   0.344   0.343   0.332   0.338   0.339   0.383   0.369   0.392   0.411   0.431   0.405   0.403   0.386   0.371   0.347   0.380   0.408   0.406   0.402   0.357   0.358   0.380   0.388   0.367   0.368   0.376   0.364   0.370   0.363   0.373   0.377   0.366   0.367   0.380   0.386   0.397   0.390   0.409   0.403   0.389   0.391   0.364   0.368   0.361   0.343   0.341   0.333   0.325   0.322   0.325   0.332   0.340   0.334   0.354   0.377   0.365   0.359   0.332   0.328   0.326   0.338   0.360   0.347   0.344   0.318   0.343   0.375   0.387   0.373   0.386   0.415   0.408   0.370   0.394   0.402   0.358   0.349   0.375   0.351   0.338   0.336   0.360   0.350   0.373   0.375   0.364   0.354   0.354   0.368   0.364   0.375   0.371   0.364   0.353   0.357   0.349   0.349   0.332   0.343   0.317   0.324   0.367   0.417   0.391   0.390   0.389   0.389   0.379   0.404   0.410   0.403   0.369   0.390   0.413   0.421   0.429   0.400   0.423   0.407   0.392   0.423   0.401   0.383   0.351   0.382   0.394   0.427   0.446   0.458   0.468   0.475   0.480   0.445   0.471   0.501   0.501   0.488   0.497   0.464   0.472   0.491   0.467   0.457   0.466   0.461   0.468   0.414   0.404   0.447   0.465   0.429   0.393   0.386   0.367   0.361   0.353   0.358   0.355   0.384   0.398   0.367
   280.00    0.399   0.387   0.370   0.418   0.408   0.394   0.386   0.365   0.342   0.356   0.373   0.383   0.421   0.391   0.391   0.400   0.427   0.430   0.413   0.410   0.394   0.391   0.356   0.360   0.345   0.328   0.318   0.318   0.333   0.358   0.383   0.372   0.364   0.358   0.338   0.362   0.382   0.389   0.390   0.392   0.403   0.418   0.400   0.384   0.405   0.386   0.382   0.403   0.387   0.415   0.405   0.373   0.355   0.385   0.382   0.358   0.362   0.364   0.356   0.355   0.375   0.366   0.350   0.366   0.351   0.386   0.377   0.396   0.377   0.376   0.381   0.390   0.387   0.371   0.348   0.349   0.363   0.341   0.327   0.303   0.306   0.321   0.306   0.324   0.343   0.348   0.373   0.385   0.355   0.349   0.326   0.331   0.330   0.336   0.346   0.360   0.323   0.347   0.361   0.381   0.387   0.394   0.394   0.396   0.392   0.396   0.370   0.373   0.342   0.350   0.364   0.366   0.363   0.364   0.347   0.355   0.353   0.364   0.366   0.335   0.368   0.360   0.395   0.385   0.361   0.342   0.344   0.341   0.323   0.346   0.362   0.330   0.333   0.366   0.417   0.416   0.397   0.398   0.392   0.389   0.404   0.396   0.389   0.386   0.386   0.411   0.429   0.439   0.444   0.412   0.413   0.395   0.411   0.404   0.414   0.376   0.404   0.423   0.439   0.443   0.487   0.472   0.451   0.454   0.456   0.484   0.467   0.509   0.541   0.480   0.492   0.475   0.486   0.438   0.434   0.432   0.447   0.444   0.426   0.453   0.446   0.443   0.409   0.422   0.384   0.381   0.370   0.389   0.383   0.370   0.388   0.400   0.381
   270.70    0.396   0.410   0.387   0.413   0.414   0.394   0.381   0.381   0.383   0.358   0.347   0.375   0.396   0.419   0.394   0.416   0.416   0.416   0.420   0.400   0.400   0.401   0.352   0.341   0.354   0.342   0.341   0.327   0.353   0.386   0.400   0.392   0.369   0.378   0.379   0.384   0.411   0.412   0.385   0.394   0.391   0.403   0.426   0.399   0.394   0.374   0.387   0.396   0.380   0.375   0.396   0.374   0.364   0.379   0.361   0.365   0.367   0.365   0.360   0.353   0.347   0.367   0.361   0.359   0.369   0.367   0.357   0.391   0.375   0.356   0.370   0.375   0.359   0.362   0.326   0.329   0.332   0.355   0.331   0.292   0.313   0.341   0.327   0.322   0.349   0.384   0.368   0.367   0.361   0.362   0.352   0.312   0.347   0.352   0.342   0.351   0.335   0.345   0.362   0.376   0.405   0.390   0.378   0.371   0.372   0.354   0.371   0.366   0.367   0.348   0.346   0.345   0.348   0.333   0.352   0.335   0.340   0.341   0.360   0.359   0.368   0.363   0.384   0.377   0.353   0.345   0.350   0.320   0.343   0.343   0.344   0.365   0.378   0.354   0.408   0.423   0.419   0.409   0.391   0.393   0.400   0.406   0.400   0.408   0.376   0.408   0.412   0.421   0.424   0.391   0.390   0.399   0.411   0.399   0.427   0.429   0.414   0.451   0.450   0.487   0.494   0.482   0.471   0.445   0.442   0.460   0.485   0.506   0.524   0.536   0.505   0.486   0.481   0.462   0.428   0.415   0.426   0.462   0.442   0.437   0.437   0.414   0.428   0.411   0.398   0.370   0.363   0.386   0.398   0.407   0.399   0.389   0.394
   261.40    0.401   0.381   0.380   0.411   0.419   0.432   0.404   0.411   0.406   0.363   0.374   0.382   0.410   0.390   0.389   0.410   0.410   0.405   0.404   0.398   0.394   0.382   0.360   0.332   0.338   0.351   0.350   0.346   0.347   0.379   0.387   0.390   0.384   0.381   0.412   0.404   0.376   0.394   0.406   0.376   0.370   0.398   0.398   0.379   0.385   0.383   0.388   0.367   0.366   0.370   0.356   0.343   0.354   0.363   0.364   0.390   0.354   0.339   0.374   0.375   0.354   0.370   0.374   0.361   0.371   0.344   0.356   0.384   0.392   0.381   0.362   0.359   0.358   0.363   0.342   0.323   0.323   0.331   0.316   0.306   0.330   0.340   0.352   0.331   0.373   0.379   0.379   0.388   0.380   0.358   0.359   0.351   0.318   0.368   0.342   0.368   0.354   0.371   0.364   0.403   0.415   0.398   0.402   0.358   0.362   0.358   0.330   0.340   0.333   0.351   0.348   0.368   0.357   0.309   0.337   0.357   0.334   0.346   0.342   0.360   0.372   0.368   0.358   0.354   0.347   0.344   0.324   0.347   0.329   0.366   0.372   0.361   0.351   0.371   0.382   0.419   0.416   0.417   0.399   0.390   0.389   0.371   0.391   0.397   0.401   0.404   0.372   0.417   0.411   0.398   0.380   0.405   0.423   0.424   0.408   0.430   0.447   0.429   0.433   0.465   0.478   0.474   0.443   0.435   0.452   0.488   0.472   0.518   0.498   0.510   0.519   0.502   0.504   0.466   0.452   0.455   0.462   0.472   0.460   0.436   0.461   0.434   0.428   0.451   0.415   0.399   0.368   0.386   0.407   0.396   0.384   0.392   0.401
   252.10    0.368   0.388   0.390   0.439   0.464   0.452   0.429   0.420   0.404   0.381   0.379   0.393   0.391   0.384   0.389   0.403   0.400   0.396   0.377   0.377   0.377   0.369   0.378   0.348   0.337   0.356   0.357   0.351   0.359   0.385   0.382   0.389   0.402   0.384   0.417   0.399   0.397   0.401   0.389   0.384   0.411   0.390   0.373   0.346   0.375   0.381   0.374   0.394   0.363   0.350   0.350   0.354   0.383   0.365   0.372   0.403   0.418   0.369   0.370   0.372   0.368   0.359   0.369   0.365   0.338   0.371   0.380   0.393   0.397   0.384   0.380   0.380   0.360   0.332   0.316   0.306   0.319   0.340   0.320   0.325   0.349   0.352   0.349   0.380   0.367   0.385   0.387   0.374   0.392   0.338   0.346   0.327   0.313   0.333   0.335   0.367   0.364   0.357   0.379   0.404   0.394   0.356   0.361   0.346   0.350   0.355   0.335   0.341   0.330   0.345   0.348   0.354   0.357   0.331   0.356   0.360   0.365   0.358   0.356   0.345   0.359   0.339   0.363   0.361   0.366   0.346   0.326   0.339   0.331   0.347   0.337   0.379   0.366   0.361   0.384   0.392   0.417   0.387   0.367   0.382   0.373   0.375   0.366   0.361   0.398   0.380   0.392   0.391   0.397   0.385   0.382   0.388   0.407   0.409   0.385   0.406   0.415   0.421   0.429   0.457   0.476   0.512   0.474   0.468   0.432   0.446   0.468   0.514   0.525   0.525   0.497   0.486   0.511   0.498   0.477   0.473   0.486   0.469   0.477   0.480   0.448   0.458   0.445   0.441   0.443   0.384   0.375   0.401   0.374   0.378   0.364   0.371   0.395
   242.80    0.393   0.405   0.411   0.431   0.475   0.480   0.491   0.428   0.394   0.394   0.368   0.381   0.367   0.395   0.407   0.393   0.409   0.387   0.376   0.358   0.349   0.362   0.383   0.381   0.370   0.340   0.356   0.343   0.375   0.385   0.372   0.423   0.412   0.407   0.424   0.419   0.395   0.400   0.391   0.393   0.417   0.433   0.422   0.413   0.382   0.380   0.411   0.401   0.361   0.343   0.344   0.353   0.359   0.383   0.376   0.402   0.393   0.379   0.374   0.355   0.345   0.353   0.350   0.345   0.355   0.359   0.375   0.371   0.395   0.370   0.377   0.369   0.344   0.335   0.343   0.330   0.340   0.354   0.337   0.322   0.364   0.366   0.377   0.370   0.367   0.382   0.390   0.378   0.358   0.357   0.329   0.325   0.339   0.347   0.348   0.382   0.358   0.329   0.382   0.403   0.384   0.320   0.344   0.330   0.357   0.378   0.379   0.353   0.332   0.351   0.350   0.351   0.353   0.327   0.355   0.347   0.384   0.392   0.352   0.354   0.337   0.328   0.324   0.350   0.357   0.326   0.310   0.320   0.341   0.368   0.336   0.351   0.338   0.354   0.354   0.374   0.404   0.376   0.380   0.371   0.371   0.375   0.368   0.373   0.403   0.383   0.396   0.385   0.369   0.387   0.366   0.381   0.389   0.370   0.355   0.397   0.402   0.411   0.414   0.457   0.474   0.481   0.468   0.448   0.448   0.477   0.486   0.505   0.525   0.536   0.509   0.497   0.482   0.500   0.467   0.474   0.492   0.483   0.493   0.459   0.451   0.425   0.444   0.435   0.437   0.367   0.391   0.386   0.396   0.368   0.355   0.350   0.378
   233.50    0.446   0.416   0.427   0.447   0.455   0.475   0.462   0.440   0.378   0.358   0.375   0.372   0.392   0.410   0.409   0.386   0.403   0.375   0.359   0.349   0.355   0.360   0.365   0.366   0.370   0.340   0.336   0.371   0.370   0.382   0.389   0.427   0.421   0.416   0.408   0.420   0.419   0.415   0.400   0.424   0.427   0.467   0.442   0.419   0.404   0.410   0.405   0.411   0.356   0.345   0.363   0.334   0.355   0.369   0.372   0.377   0.385   0.383   0.387   0.351   0.335   0.334   0.361   0.337   0.332   0.360   0.352   0.375   0.375   0.372   0.355   0.366   0.346   0.343   0.340   0.363   0.359   0.354   0.341   0.348   0.350   0.361   0.346   0.359   0.362   0.351   0.381   0.370   0.353   0.350   0.343   0.318   0.337   0.360   0.355   0.347   0.352   0.344   0.373   0.386   0.368   0.349   0.329   0.352   0.361   0.367   0.396   0.386   0.364   0.348   0.359   0.371   0.332   0.335   0.335   0.337   0.371   0.362   0.356   0.332   0.348   0.355   0.300   0.322   0.360   0.338   0.322   0.326   0.339   0.357   0.342   0.351   0.371   0.359   0.363   0.372   0.378   0.387   0.375   0.379   0.373   0.380   0.367   0.388   0.384   0.395   0.391   0.407   0.411   0.400   0.373   0.370   0.388   0.352   0.339   0.370   0.359   0.373   0.372   0.414   0.434   0.476   0.429   0.412   0.442   0.510   0.496   0.515   0.519   0.515   0.496   0.485   0.480   0.490   0.496   0.471   0.492   0.494   0.490   0.476   0.451   0.440   0.446   0.434   0.393   0.397   0.396   0.372   0.379   0.381   0.342   0.371   0.374
   224.20    0.465   0.455   0.434   0.441   0.440   0.465   0.442   0.413   0.377   0.373   0.386   0.409   0.401   0.395   0.383   0.391   0.373   0.341   0.351   0.346   0.344   0.357   0.339   0.353   0.346   0.353   0.342   0.346   0.367   0.383   0.411   0.411   0.381   0.382   0.391   0.377   0.399   0.418   0.404   0.428   0.430   0.463   0.448   0.450   0.421   0.411   0.408   0.373   0.358   0.359   0.335   0.350   0.365   0.357   0.366   0.382   0.389   0.387   0.386   0.353   0.341   0.335   0.357   0.368   0.337   0.360   0.371   0.375   0.380   0.397   0.386   0.379   0.370   0.364   0.380   0.372   0.345   0.347   0.359   0.354   0.353   0.337   0.353   0.366   0.351   0.369   0.375   0.361   0.349   0.329   0.347   0.320   0.325   0.375   0.386   0.366   0.366   0.324   0.348   0.379   0.361   0.369   0.362   0.377   0.388   0.372   0.386   0.411   0.389   0.348   0.370   0.356   0.332   0.343   0.361   0.353   0.363   0.347   0.343   0.314   0.342   0.323   0.325   0.330   0.342   0.336   0.303   0.307   0.334   0.351   0.338   0.349   0.368   0.366   0.355   0.358   0.391   0.380   0.362   0.354   0.346   0.346   0.366   0.375   0.394   0.411   0.378   0.381   0.374   0.372   0.381   0.374   0.376   0.355   0.324   0.360   0.344   0.373   0.368   0.395   0.390   0.439   0.449   0.437   0.451   0.487   0.500   0.506   0.485   0.516   0.501   0.499   0.467   0.435   0.454   0.483   0.502   0.495   0.479   0.467   0.446   0.461   0.455   0.451   0.409   0.400   0.415   0.410   0.414   0.366   0.365   0.371   0.374
   214.90    0.458   0.432   0.446   0.458   0.440   0.446   0.439   0.416   0.403   0.358   0.374   0.380   0.379   0.374   0.369   0.368   0.340   0.327   0.330   0.321   0.339   0.352   0.368   0.359   0.328   0.330   0.336   0.359   0.361   0.376   0.384   0.394   0.394   0.382   0.354   0.375   0.402   0.430   0.430   0.420   0.463   0.440   0.441   0.438   0.443   0.409   0.397   0.377   0.394   0.357   0.351   0.353   0.350   0.345   0.373   0.367   0.359   0.367   0.364   0.359   0.351   0.337   0.352   0.367   0.360   0.389   0.356   0.375   0.395   0.398   0.397   0.388   0.387   0.376   0.377   0.386   0.371   0.350   0.363   0.355   0.358   0.349   0.344   0.356   0.350   0.353   0.353   0.358   0.353   0.339   0.343   0.328   0.352   0.373   0.388   0.384   0.380   0.356   0.358   0.353   0.361   0.378   0.373   0.375   0.371   0.363   0.382   0.373   0.386   0.389   0.357   0.354   0.364   0.349   0.376   0.354   0.374   0.352   0.318   0.326   0.330   0.322   0.325   0.335   0.326   0.333   0.341   0.316   0.337   0.347   0.352   0.366   0.354   0.389   0.371   0.347   0.377   0.360   0.355   0.339   0.348   0.363   0.386   0.360   0.382   0.376   0.382   0.388   0.358   0.360   0.374   0.382   0.355   0.335   0.341   0.338   0.345   0.352   0.344   0.383   0.370   0.398   0.411   0.425   0.466   0.460   0.490   0.511   0.487   0.528   0.496   0.518   0.468   0.442   0.465   0.469   0.489   0.492   0.458   0.444   0.455   0.470   0.440   0.431   0.423   0.436   0.420   0.393   0.390   0.372   0.368   0.345   0.385
   205.60    0.429   0.417   0.431   0.449   0.436   0.432   0.429   0.402   0.374   0.396   0.376   0.353   0.367   0.349   0.358   0.357   0.329   0.338   0.335   0.320   0.351   0.364   0.366   0.378   0.369   0.368   0.362   0.369   0.382   0.374   0.375   0.368   0.390   0.376   0.380   0.361   0.372   0.403   0.425   0.411   0.431   0.444   0.400   0.407   0.410   0.406   0.392   0.404   0.370   0.367   0.360   0.349   0.326   0.332   0.337   0.351   0.360   0.368   0.370   0.354   0.340   0.342   0.343   0.351   0.369   0.353   0.369   0.394   0.422   0.378   0.394   0.390   0.362   0.341   0.370   0.372   0.352   0.360   0.372   0.362   0.360   0.355   0.343   0.353   0.327   0.320   0.349   0.356   0.345   0.354   0.351   0.352   0.364   0.390   0.392   0.345   0.361   0.366   0.374   0.377   0.361   0.349   0.363   0.370   0.345   0.361   0.359   0.376   0.389   0.357   0.363   0.366   0.381   0.371   0.372   0.364   0.361   0.366   0.333   0.308   0.309   0.323   0.345   0.327   0.327   0.321   0.365   0.358   0.346   0.357   0.372   0.348   0.368   0.378   0.378   0.358   0.390   0.384   0.357   0.371   0.378   0.388   0.377   0.382   0.375   0.367   0.365   0.360   0.348   0.350   0.372   0.358   0.360   0.352   0.361   0.339   0.365   0.381   0.360   0.366   0.387   0.381   0.403   0.413   0.441   0.439   0.440   0.471   0.461   0.488   0.478   0.522   0.473   0.478   0.456   0.457   0.473   0.480   0.465   0.453   0.453   0.459   0.456   0.449   0.417   0.406   0.412   0.409   0.380   0.369   0.353   0.388   0.369
   196.30    0.439   0.435   0.414   0.407   0.449   0.443   0.432   0.383   0.384   0.380   0.366   0.359   0.357   0.328   0.324   0.327   0.315   0.326   0.336   0.328   0.333   0.352   0.369   0.373   0.377   0.383   0.372   0.368   0.394   0.376   0.360   0.386   0.380   0.358   0.386   0.372   0.394   0.398   0.389   0.391   0.393   0.421   0.412   0.374   0.375   0.390   0.370   0.351   0.348   0.366   0.342   0.355   0.349   0.346   0.310   0.337   0.336   0.368   0.374   0.375   0.367   0.349   0.382   0.366   0.348   0.361   0.383   0.393   0.394   0.388   0.371   0.365   0.350   0.340   0.345   0.366   0.372   0.335   0.355   0.360   0.374   0.371   0.339   0.327   0.317   0.332   0.341   0.360   0.335   0.325   0.346   0.341   0.354   0.380   0.397   0.367   0.369   0.375   0.374   0.347   0.356   0.378   0.387   0.370   0.353   0.335   0.346   0.379   0.375   0.381   0.363   0.362   0.388   0.395   0.387   0.362   0.386   0.354   0.346   0.317   0.311   0.323   0.328   0.318   0.324   0.333   0.370   0.370   0.366   0.397   0.374   0.389   0.403   0.384   0.386   0.395   0.395   0.376   0.373   0.405   0.433   0.410   0.363   0.376   0.387   0.361   0.330   0.342   0.324   0.329   0.333   0.343   0.336   0.328   0.352   0.368   0.389   0.411   0.373   0.377   0.373   0.381   0.385   0.394   0.415   0.441   0.470   0.465   0.452   0.460   0.480   0.508   0.507   0.480   0.460   0.456   0.471   0.471   0.454   0.443   0.438   0.450   0.468   0.483   0.445   0.426   0.431   0.412   0.401   0.372   0.359   0.400   0.383
   187.00    0.423   0.419   0.381   0.392   0.431   0.428   0.413   0.387   0.370   0.376   0.380   0.382   0.369   0.324   0.334   0.327   0.345   0.339   0.363   0.333   0.349   0.356   0.346   0.366   0.360   0.377   0.376   0.394   0.387   0.374   0.359   0.381   0.362   0.374   0.390   0.371   0.387   0.387   0.387   0.389   0.367   0.380   0.397   0.394   0.381   0.380   0.397   0.381   0.364   0.378   0.338   0.320   0.342   0.327   0.329   0.343   0.351   0.376   0.408   0.390   0.396   0.406   0.416   0.390   0.370   0.349   0.367   0.401   0.389   0.367   0.340   0.340   0.343   0.349   0.350   0.338   0.353   0.328   0.345   0.351   0.373   0.368   0.321   0.316   0.331   0.345   0.346   0.341   0.322   0.297   0.332   0.358   0.365   0.393   0.405   0.385   0.366   0.341   0.333   0.347   0.329   0.362   0.373   0.361   0.376   0.357   0.354   0.388   0.388   0.395   0.381   0.387   0.388   0.403   0.389   0.351   0.375   0.354   0.341   0.338   0.328   0.346   0.355   0.348   0.343   0.345   0.371   0.359   0.365   0.371   0.383   0.391   0.372   0.389   0.375   0.383   0.413   0.416   0.381   0.412   0.453   0.430   0.409   0.384   0.402   0.371   0.359   0.333   0.329   0.323   0.342   0.336   0.338   0.333   0.351   0.369   0.400   0.423   0.376   0.383   0.360   0.375   0.378   0.368   0.390   0.438   0.442   0.468   0.469   0.482   0.480   0.488   0.489   0.451   0.455   0.472   0.464   0.438   0.447   0.466   0.458   0.476   0.486   0.486   0.478   0.455   0.425   0.425   0.407   0.385   0.411   0.391   0.394
   177.70    0.382   0.403   0.377   0.374   0.405   0.433   0.401   0.371   0.400   0.408   0.356   0.366   0.377   0.349   0.347   0.348   0.324   0.303   0.321   0.335   0.336   0.332   0.332   0.323   0.341   0.344   0.370   0.364   0.366   0.378   0.380   0.381   0.379   0.374   0.392   0.359   0.381   0.371   0.388   0.380   0.383   0.367   0.367   0.358   0.363   0.357   0.362   0.390   0.376   0.390   0.347   0.338   0.321   0.315   0.340   0.359   0.356   0.367   0.411   0.394   0.415   0.397   0.402   0.380   0.352   0.358   0.352   0.397   0.385   0.362   0.345   0.340   0.338   0.349   0.323   0.351   0.360   0.337   0.338   0.341   0.347   0.349   0.360   0.336   0.324   0.352   0.356   0.355   0.340   0.329   0.357   0.356   0.384   0.398   0.421   0.391   0.371   0.367   0.356   0.338   0.330   0.352   0.351   0.355   0.354   0.349   0.365   0.380   0.389   0.388   0.367   0.401   0.387   0.390   0.355   0.357   0.346   0.349   0.332   0.355   0.325   0.327   0.356   0.364   0.346   0.345   0.375   0.381   0.365   0.366   0.367   0.356   0.373   0.397   0.384   0.381   0.393   0.412   0.447   0.446   0.447   0.446   0.425   0.398   0.395   0.384   0.369   0.341   0.327   0.343   0.336   0.332   0.341   0.330   0.327   0.359   0.384   0.400   0.389   0.398   0.387   0.386   0.365   0.389   0.372   0.413   0.430   0.461   0.456   0.464   0.484   0.454   0.482   0.453   0.470   0.479   0.471   0.447   0.427   0.458   0.484   0.464   0.444   0.477   0.454   0.481   0.422   0.435   0.415   0.413   0.398   0.390   0.409
   168.40    0.409   0.419   0.385   0.400   0.422   0.396   0.416   0.422   0.418   0.409   0.377   0.377   0.405   0.388   0.346   0.340   0.310   0.309   0.313   0.325   0.330   0.352   0.325   0.337   0.329   0.345   0.366   0.364   0.350   0.361   0.380   0.348   0.367   0.385   0.369   0.377   0.368   0.391   0.409   0.402   0.401   0.390   0.398   0.389   0.372   0.362   0.361   0.389   0.371   0.379   0.328   0.343   0.339   0.335   0.343   0.351   0.389   0.385   0.411   0.427   0.429   0.401   0.375   0.382   0.364   0.361   0.368   0.387   0.413   0.373   0.326   0.347   0.337   0.347   0.333   0.336   0.357   0.337   0.323   0.312   0.326   0.346   0.368   0.356   0.320   0.324   0.345   0.345   0.383   0.363   0.339   0.350   0.375   0.393   0.403   0.416   0.371   0.369   0.359   0.360   0.356   0.368   0.373   0.367   0.366   0.338   0.350   0.373   0.393   0.404   0.393   0.416   0.395   0.392   0.389   0.365   0.351   0.322   0.326   0.347   0.345   0.359   0.365   0.349   0.330   0.340   0.369   0.381   0.375   0.404   0.384   0.381   0.364   0.369   0.375   0.405   0.413   0.412   0.417   0.420   0.438   0.453   0.410   0.407   0.416   0.383   0.356   0.355   0.352   0.342   0.334   0.373   0.350   0.340   0.324   0.347   0.356   0.385   0.390   0.373   0.395   0.416   0.376   0.395   0.388   0.411   0.422   0.432   0.464   0.456   0.469   0.447   0.475   0.485   0.491   0.482   0.458   0.451   0.417   0.461   0.464   0.470   0.475   0.457   0.449   0.453   0.401   0.383   0.409   0.413   0.421   0.408   0.421
   159.10    0.427   0.407   0.384   0.402   0.419   0.404   0.404   0.415   0.417   0.440   0.414   0.420   0.400   0.383   0.379   0.346   0.334   0.335   0.317   0.325   0.319   0.329   0.324   0.354   0.336   0.314   0.346   0.362   0.385   0.378   0.364   0.388   0.368   0.366   0.375   0.373   0.380   0.378   0.406   0.397   0.401   0.414   0.421   0.404   0.370   0.385   0.384   0.365   0.384   0.390   0.353   0.354   0.341   0.348   0.342   0.352   0.361   0.373   0.399   0.429   0.431   0.404   0.390   0.381   0.391   0.363   0.378   0.401   0.419   0.384   0.383   0.384   0.379   0.361   0.352   0.356   0.376   0.363   0.340   0.332   0.335   0.332   0.366   0.357   0.344   0.367   0.343   0.364   0.360   0.360   0.347   0.376   0.373   0.373   0.379   0.377   0.372   0.358   0.364   0.362   0.366   0.366   0.366   0.371   0.366   0.352   0.372   0.401   0.408   0.431   0.421   0.420   0.415   0.375   0.350   0.370   0.333   0.336   0.351   0.353   0.330   0.336   0.363   0.360   0.379   0.351   0.372   0.391   0.383   0.394   0.355   0.363   0.355   0.370   0.383   0.403   0.409   0.401   0.411   0.421   0.426   0.433   0.390   0.414   0.414   0.372   0.354   0.340   0.336   0.352   0.348   0.373   0.355   0.358   0.362   0.341   0.345   0.375   0.415   0.384   0.399   0.397   0.386   0.425   0.448   0.435   0.440   0.447   0.444   0.447   0.471   0.470   0.443   0.466   0.451   0.455   0.473   0.439   0.436   0.452   0.447   0.439   0.451   0.451   0.432   0.391   0.395   0.412   0.423   0.414   0.417   0.437   0.434
   149.80    0.430   0.407   0.422   0.422   0.436   0.402   0.419   0.404   0.418   0.424   0.452   0.419   0.420   0.408   0.353   0.344   0.330   0.334   0.340   0.334   0.327   0.341   0.343   0.338   0.344   0.337   0.357   0.389   0.400   0.369   0.382   0.360   0.369   0.364   0.383   0.408   0.401   0.407   0.389   0.423   0.420   0.413   0.411   0.413   0.407   0.407   0.392   0.383   0.384   0.372   0.363   0.352   0.375   0.343   0.348   0.357   0.375   0.394   0.392   0.424   0.434   0.437   0.413   0.392   0.364   0.371   0.370   0.408   0.430   0.413   0.411   0.384   0.390   0.364   0.374   0.372   0.379   0.358   0.356   0.354   0.342   0.364   0.375   0.365   0.354   0.378   0.357   0.373   0.386   0.359   0.358   0.401   0.389   0.371   0.346   0.347   0.357   0.366   0.367   0.363   0.366   0.373   0.365   0.378   0.364   0.378   0.373   0.404   0.421   0.435   0.435   0.439   0.442   0.386   0.379   0.375   0.354   0.333   0.358   0.343   0.366   0.355   0.358   0.383   0.376   0.392   0.407   0.381   0.385   0.388   0.370   0.358   0.357   0.372   0.389   0.389   0.411   0.404   0.417   0.424   0.431   0.416   0.409   0.405   0.402   0.371   0.392   0.355   0.358   0.374   0.364   0.355   0.355   0.360   0.376   0.355   0.336   0.368   0.378   0.367   0.362   0.400   0.400   0.432   0.451   0.440   0.427   0.446   0.444   0.427   0.454   0.447   0.433   0.435   0.443   0.468   0.433   0.458   0.430   0.429   0.411   0.414   0.438   0.447   0.410   0.401   0.392   0.416   0.427   0.410   0.406   0.428   0.432
   140.50    0.420   0.437   0.402   0.409   0.414   0.395   0.391   0.408   0.413   0.403   0.410   0.412   0.407   0.397   0.365   0.360   0.345   0.323   0.319   0.339   0.334   0.331   0.342   0.334   0.332   0.349   0.392   0.411   0.387   0.386   0.383   0.356   0.379   0.388   0.400   0.393   0.378   0.390   0.415   0.429   0.418   0.412   0.404   0.419   0.410   0.403   0.401   0.393   0.388   0.379   0.367   0.371   0.399   0.384   0.361   0.360   0.371   0.400   0.386   0.397   0.420   0.413   0.427   0.399   0.365   0.371   0.365   0.398   0.419   0.425   0.401   0.377   0.374   0.369   0.381   0.372   0.358   0.366   0.353   0.363   0.346   0.365   0.384   0.359   0.356   0.355   0.371   0.378   0.397   0.374   0.384   0.373   0.351   0.383   0.345   0.339   0.347   0.372   0.397   0.385   0.347   0.356   0.369   0.344   0.373   0.407   0.399   0.427   0.447   0.395   0.405   0.425   0.400   0.392   0.401   0.384   0.370   0.349   0.363   0.340   0.361   0.370   0.341   0.367   0.396   0.406   0.401   0.376   0.389   0.409   0.363   0.383   0.354   0.371   0.380   0.389   0.374   0.420   0.413   0.397   0.430   0.417   0.414   0.417   0.408   0.390   0.395   0.361   0.374   0.375   0.379   0.359   0.364   0.387   0.383   0.385   0.355   0.354   0.358   0.359   0.348   0.366   0.411   0.431   0.473   0.441   0.474   0.447   0.437   0.435   0.413   0.419   0.437   0.445   0.433   0.439   0.425   0.435   0.464   0.403   0.385   0.401   0.422   0.421   0.429   0.425   0.386   0.390   0.404   0.399   0.392   0.412   0.426
   131.20    0.429   0.418   0.407   0.429   0.410   0.399   0.368   0.410   0.408   0.389   0.381   0.405   0.407   0.386   0.394   0.371   0.337   0.349   0.331   0.328   0.329   0.349   0.328   0.338   0.353   0.383   0.385   0.383   0.410   0.395   0.377   0.382   0.376   0.388   0.408   0.386   0.382   0.390   0.375   0.417   0.422   0.438   0.429   0.416   0.417   0.431   0.426   0.417   0.414   0.410   0.389   0.390   0.408   0.385   0.380   0.381   0.370   0.391   0.413   0.396   0.393   0.386   0.381   0.388   0.377   0.370   0.368   0.405   0.424   0.418   0.402   0.392   0.406   0.384   0.379   0.396   0.373   0.361   0.351   0.354   0.349   0.347   0.383   0.373   0.360   0.327   0.372   0.373   0.393   0.380   0.371   0.341   0.346   0.352   0.354   0.335   0.328   0.362   0.389   0.362   0.366   0.364   0.352   0.357   0.370   0.416   0.420   0.436   0.457   0.422   0.400   0.414   0.419   0.408   0.392   0.392   0.375   0.365   0.351   0.347   0.325   0.355   0.330   0.338   0.356   0.378   0.377   0.372   0.422   0.411   0.367   0.388   0.377   0.394   0.390   0.413   0.399   0.394   0.409   0.399   0.424   0.444   0.399   0.424   0.400   0.413   0.410   0.384   0.386   0.404   0.383   0.365   0.372   0.401   0.388   0.394   0.368   0.355   0.364   0.326   0.334   0.390   0.412   0.437   0.439   0.461   0.481   0.444   0.446   0.458   0.440   0.415   0.417   0.429   0.410   0.411   0.390   0.424   0.419   0.416   0.377   0.388   0.426   0.424   0.419   0.440   0.410   0.405   0.431   0.384   0.378   0.408   0.410
   121.90    0.429   0.434   0.414   0.409   0.418   0.422   0.429   0.423   0.404   0.378   0.390   0.383   0.387   0.384   0.365   0.381   0.342   0.332   0.294   0.318   0.332   0.327   0.341   0.325   0.355   0.388   0.377   0.415   0.424   0.398   0.377   0.383   0.383   0.367   0.378   0.353   0.348   0.385   0.397   0.414   0.446   0.445   0.434   0.420   0.427   0.462   0.491   0.459   0.432   0.437   0.413   0.393   0.412   0.393   0.392   0.396   0.354   0.389   0.392   0.404   0.388   0.370   0.377   0.361   0.383   0.408   0.388   0.395   0.395   0.414   0.399   0.391   0.383   0.385   0.399   0.401   0.399   0.392   0.379   0.365   0.369   0.360   0.369   0.375   0.369   0.330   0.333   0.359   0.367   0.377   0.359   0.352   0.357   0.341   0.339   0.328   0.321   0.356   0.375   0.386   0.354   0.353   0.373   0.358   0.396   0.409   0.449   0.463   0.476   0.423   0.409   0.418   0.420   0.414   0.365   0.386   0.379   0.361   0.346   0.317   0.316   0.344   0.322   0.331   0.337   0.368   0.369   0.389   0.402   0.391   0.381   0.372   0.381   0.394   0.418   0.418   0.422   0.406   0.410   0.410   0.424   0.428   0.416   0.406   0.392   0.431   0.429   0.410   0.405   0.397   0.380   0.389   0.387   0.373   0.413   0.382   0.340   0.375   0.341   0.353   0.340   0.389   0.443   0.433   0.442   0.446   0.463   0.454   0.463   0.434   0.402   0.399   0.395   0.403   0.402   0.413   0.430   0.418   0.398   0.414   0.421   0.405   0.437   0.422   0.429   0.414   0.390   0.385   0.417   0.375   0.404   0.412   0.419
   112.60    0.415   0.406   0.439   0.433   0.432   0.443   0.401   0.401   0.381   0.372   0.374   0.363   0.331   0.346   0.362   0.360   0.353   0.335   0.320   0.302   0.322   0.311   0.335   0.340   0.352   0.350   0.369   0.400   0.406   0.378   0.378   0.397   0.372   0.348   0.329   0.365   0.365   0.386   0.390   0.425   0.433   0.445   0.426   0.425   0.437   0.449   0.464   0.422   0.412   0.424   0.396   0.382   0.388   0.393   0.385   0.408   0.364   0.384   0.374   0.376   0.414   0.393   0.366   0.357   0.390   0.411   0.406   0.403   0.428   0.436   0.427   0.405   0.405   0.383   0.403   0.384   0.361   0.376   0.385   0.389   0.373   0.343   0.358   0.381   0.366   0.338   0.333   0.331   0.361   0.374   0.381   0.378   0.367   0.362   0.354   0.355   0.366   0.361   0.372   0.361   0.368   0.392   0.380   0.377   0.395   0.426   0.449   0.473   0.490   0.452   0.434   0.413   0.429   0.389   0.379   0.401   0.387   0.369   0.349   0.364   0.346   0.349   0.359   0.372   0.348   0.381   0.377   0.392   0.385   0.402   0.401   0.399   0.386   0.413   0.405   0.410   0.408   0.428   0.401   0.416   0.439   0.396   0.410   0.391   0.402   0.423   0.431   0.420   0.417   0.395   0.399   0.394   0.378   0.394   0.392   0.390   0.399   0.358   0.357   0.365   0.371   0.388   0.399   0.429   0.450   0.455   0.439   0.438   0.441   0.448   0.430   0.402   0.373   0.382   0.398   0.421   0.432   0.414   0.392   0.377   0.419   0.435   0.423   0.427   0.429   0.405   0.379   0.379   0.411   0.395   0.408   0.429   0.395
   103.30    0.407   0.410   0.430   0.432   0.433   0.411   0.423   0.412   0.387   0.362   0.344   0.329   0.328   0.336   0.341   0.331   0.338   0.344   0.321   0.315   0.335   0.317   0.349   0.349   0.324   0.364   0.388   0.397   0.404   0.398   0.408   0.400   0.365   0.344   0.346   0.363   0.366   0.404   0.402   0.425   0.430   0.415   0.422   0.437   0.421   0.434   0.414   0.380   0.377   0.379   0.357   0.361   0.392   0.394   0.395   0.400   0.384   0.363   0.381   0.385   0.369   0.372   0.348   0.351   0.393   0.428   0.432   0.431   0.444   0.447   0.418   0.404   0.386   0.410   0.390   0.380   0.361   0.365   0.369   0.390   0.375   0.359   0.366   0.373   0.385   0.359   0.361   0.367   0.367   0.367   0.375   0.388   0.377   0.369   0.363   0.376   0.367   0.356   0.381   0.366   0.357   0.393   0.396   0.410   0.434   0.422   0.412   0.457   0.472   0.492   0.461   0.442   0.446   0.415   0.392   0.386   0.382   0.385   0.379   0.375   0.365   0.360   0.380   0.371   0.357   0.375   0.368   0.400   0.405   0.393   0.397   0.415   0.388   0.404   0.405   0.400   0.392   0.415   0.423   0.412   0.401   0.385   0.403   0.403   0.402   0.443   0.449   0.439   0.436   0.428   0.431   0.396   0.387   0.369   0.373   0.377   0.378   0.375   0.380   0.367   0.379   0.390   0.420   0.454   0.446   0.449   0.428   0.400   0.421   0.418   0.416   0.393   0.389   0.367   0.382   0.401   0.388   0.397   0.394   0.401   0.408   0.438   0.464   0.456   0.443   0.424   0.396   0.373   0.400   0.433   0.426   0.423   0.421
    94.00    0.382   0.406   0.420   0.426   0.458   0.447   0.433   0.407   0.374   0.331   0.342   0.331   0.352   0.344   0.339   0.329   0.346   0.336   0.322   0.343   0.322   0.342   0.333   0.332   0.346   0.363   0.389   0.378   0.367   0.381   0.422   0.394   0.389   0.335   0.319   0.346   0.353   0.380   0.403   0.391   0.388   0.401   0.409   0.404   0.390   0.414   0.373   0.352   0.361   0.352   0.328   0.335   0.380   0.379   0.363   0.395   0.397   0.386   0.378   0.375   0.341   0.348   0.350   0.360   0.381   0.407   0.431   0.431   0.412   0.449   0.458   0.398   0.419   0.398   0.394   0.374   0.376   0.383   0.399   0.396   0.376   0.393   0.377   0.367   0.372   0.378   0.385   0.364   0.366   0.369   0.373   0.382   0.393   0.378   0.364   0.365   0.355   0.365   0.387   0.394   0.410   0.394   0.415   0.432   0.420   0.410   0.422   0.457   0.474   0.474   0.492   0.449   0.446   0.433   0.418   0.402   0.375   0.367   0.375   0.383   0.372   0.364   0.377   0.399   0.377   0.402   0.384   0.407   0.417   0.429   0.430   0.397   0.394   0.402   0.411   0.403   0.435   0.414   0.408   0.430   0.406   0.411   0.404   0.433   0.443   0.439   0.439   0.433   0.443   0.435   0.423   0.422   0.426   0.387   0.391   0.381   0.394   0.387   0.390   0.371   0.363   0.376   0.397   0.412   0.447   0.435   0.378   0.386   0.406   0.377   0.386   0.384   0.403   0.390   0.381   0.383   0.409   0.379   0.380   0.370   0.404   0.432   0.454   0.462   0.441   0.429   0.397   0.380   0.394   0.412   0.438   0.408   0.403
    84.70    0.380   0.408   0.408   0.405   0.435   0.447   0.409   0.407   0.375   0.367   0.367   0.361   0.362   0.356   0.340   0.342   0.324   0.323   0.354   0.347   0.318   0.346   0.322   0.339   0.347   0.382   0.412   0.393   0.377   0.382   0.397   0.404   0.379   0.342   0.330   0.351   0.360   0.371   0.396   0.405   0.378   0.367   0.365   0.378   0.370   0.369   0.366   0.337   0.361   0.340   0.330   0.347   0.352   0.378   0.357   0.377   0.373   0.396   0.401   0.380   0.359   0.366   0.368   0.356   0.374   0.404   0.413   0.425   0.424   0.437   0.451   0.422   0.395   0.402   0.388   0.389   0.383   0.399   0.378   0.401   0.386   0.409   0.389   0.394   0.367   0.381   0.389   0.377   0.347   0.368   0.379   0.376   0.392   0.364   0.367   0.373   0.390   0.382   0.384   0.420   0.410   0.405   0.433   0.419   0.420   0.399   0.404   0.447   0.462   0.486   0.469   0.462   0.467   0.441   0.410   0.414   0.392   0.382   0.370   0.391   0.396   0.414   0.405   0.411   0.407   0.386   0.400   0.411   0.408   0.436   0.423   0.428   0.397   0.400   0.396   0.419   0.409   0.406   0.420   0.406   0.432   0.449   0.409   0.423   0.421   0.391   0.400   0.433   0.434   0.444   0.430   0.439   0.421   0.396   0.404   0.376   0.396   0.374   0.366   0.380   0.333   0.356   0.374   0.383   0.414   0.405   0.383   0.386   0.394   0.419   0.387   0.418   0.408   0.393   0.383   0.394   0.411   0.376   0.400   0.369   0.393   0.409   0.424   0.411   0.408   0.413   0.407   0.399   0.415   0.433   0.444   0.436   0.431
    75.40    0.410   0.422   0.392   0.383   0.424   0.405   0.407   0.403   0.380   0.388   0.374   0.362   0.341   0.341   0.318   0.328   0.337   0.330   0.323   0.350   0.317   0.341   0.351   0.341   0.350   0.402   0.431   0.408   0.399   0.389   0.400   0.391   0.383   0.342   0.358   0.365   0.334   0.360   0.382   0.386   0.381   0.370   0.369   0.376   0.376   0.364   0.351   0.333   0.335   0.329   0.303   0.324   0.358   0.368   0.378   0.366   0.366   0.391   0.396   0.387   0.375   0.400   0.409   0.386   0.400   0.420   0.395   0.427   0.438   0.432   0.422   0.439   0.422   0.404   0.379   0.357   0.372   0.381   0.355   0.366   0.400   0.400   0.400   0.383   0.386   0.382   0.361   0.359   0.354   0.348   0.357   0.345   0.362   0.382   0.382   0.363   0.384   0.378   0.388   0.404   0.401   0.412   0.414   0.405   0.407   0.413   0.432   0.461   0.441   0.466   0.480   0.452   0.450   0.431   0.418   0.395   0.390   0.368   0.355   0.395   0.404   0.401   0.391   0.425   0.426   0.432   0.405   0.408   0.421   0.423   0.446   0.424   0.387   0.398   0.410   0.382   0.378   0.407   0.413   0.403   0.416   0.435   0.430   0.438   0.431   0.407   0.406   0.428   0.430   0.434   0.446   0.437   0.419   0.370   0.377   0.396   0.377   0.396   0.367   0.348   0.355   0.368   0.394   0.383   0.397   0.381   0.389   0.386   0.366   0.398   0.394   0.397   0.393   0.383   0.417   0.402   0.396   0.391   0.357   0.383   0.353   0.377   0.404   0.403   0.413   0.410   0.407   0.434   0.409   0.427   0.421   0.425   0.411
    66.10    0.414   0.426   0.428   0.402   0.420   0.438   0.419   0.397   0.381   0.388   0.391   0.342   0.330   0.333   0.346   0.338   0.331   0.324   0.351   0.352   0.328   0.365   0.337   0.368   0.381   0.418   0.424   0.424   0.395   0.377   0.371   0.379   0.383   0.372   0.336   0.341   0.360   0.362   0.380   0.391   0.391   0.366   0.368   0.365   0.353   0.349   0.319   0.356   0.358   0.338   0.324   0.349   0.343   0.377   0.367   0.375   0.401   0.433   0.465   0.410   0.392   0.396   0.407   0.430   0.444   0.414   0.411   0.440   0.442   0.415   0.412   0.422   0.407   0.411   0.411   0.386   0.382   0.396   0.362   0.359   0.380   0.410   0.410   0.385   0.387   0.366   0.371   0.384   0.370   0.362   0.362   0.332   0.362   0.377   0.379   0.372   0.388   0.393   0.414   0.398   0.396   0.391   0.404   0.395   0.408   0.432   0.427   0.446   0.438   0.462   0.494   0.453   0.447   0.436   0.456   0.411   0.378   0.390   0.385   0.389   0.414   0.394   0.410   0.417   0.432   0.449   0.437   0.409   0.425   0.434   0.429   0.410   0.362   0.392   0.389   0.388   0.390   0.434   0.429   0.450   0.459   0.440   0.443   0.437   0.439   0.398   0.417   0.428   0.420   0.466   0.444   0.427   0.433   0.411   0.413   0.408   0.394   0.393   0.375   0.357   0.359   0.380   0.379   0.380   0.394   0.361   0.373   0.405   0.385   0.410   0.369   0.373   0.417   0.419   0.415   0.433   0.406   0.379   0.344   0.347   0.366   0.368   0.380   0.406   0.409   0.414   0.403   0.406   0.421   0.415   0.400   0.409   0.410
    56.80    0.398   0.402   0.411   0.407   0.409   0.424   0.397   0.376   0.386   0.375   0.375   0.352   0.338   0.320   0.311   0.304   0.329   0.337   0.353   0.336   0.344   0.349   0.340   0.395   0.427   0.395   0.414   0.402   0.375   0.369   0.360   0.344   0.372   0.353   0.353   0.362   0.358   0.363   0.371   0.379   0.358   0.343   0.386   0.362   0.353   0.353   0.341   0.362   0.362   0.346   0.336   0.326   0.356   0.367   0.368   0.398   0.410   0.413   0.465   0.463   0.416   0.416   0.402   0.439   0.447   0.405   0.416   0.412   0.398   0.391   0.397   0.400   0.404   0.403   0.391   0.392   0.395   0.394   0.393   0.407   0.391   0.403   0.379   0.379   0.353   0.365   0.359   0.373   0.385   0.384   0.373   0.339   0.387   0.384   0.393   0.385   0.401   0.401   0.398   0.400   0.390   0.393   0.400   0.392   0.432   0.442   0.466   0.456   0.428   0.461   0.474   0.462   0.416   0.424   0.445   0.425   0.384   0.381   0.393   0.413   0.409   0.400   0.392   0.408   0.449   0.452   0.438   0.434   0.438   0.408   0.416   0.406   0.371   0.357   0.368   0.379   0.382   0.428   0.453   0.448   0.447   0.443   0.452   0.452   0.460   0.449   0.433   0.435   0.465   0.460   0.449   0.432   0.434   0.416   0.403   0.375   0.378   0.386   0.374   0.376   0.407   0.423   0.410   0.381   0.380   0.367   0.419   0.413   0.365   0.395   0.411   0.398   0.433   0.428   0.452   0.446   0.434   0.407   0.377   0.373   0.333   0.374   0.362   0.363   0.372   0.390   0.408   0.404   0.384   0.393   0.386   0.389   0.426
    47.50    0.421   0.390   0.390   0.376   0.399   0.401   0.373   0.342   0.354   0.355   0.370   0.365   0.366   0.328   0.319   0.292   0.324   0.336   0.335   0.298   0.321   0.342   0.377   0.405   0.400   0.410   0.394   0.413   0.393   0.356   0.335   0.361   0.358   0.349   0.358   0.356   0.332   0.363   0.393   0.377   0.351   0.335   0.369   0.382   0.355   0.377   0.371   0.392   0.382   0.361   0.367   0.381   0.352   0.362   0.380   0.387   0.403   0.445   0.465   0.444   0.437   0.449   0.443   0.463   0.433   0.411   0.387   0.406   0.373   0.372   0.372   0.379   0.389   0.379   0.385   0.372   0.379   0.377   0.386   0.392   0.398   0.406   0.403   0.387   0.373   0.358   0.364   0.375   0.388   0.389   0.396   0.382   0.395   0.390   0.371   0.374   0.395   0.383   0.395   0.391   0.393   0.399   0.413   0.412   0.439   0.443   0.472   0.469   0.457   0.420   0.435   0.453   0.436   0.406   0.427   0.417   0.382   0.381   0.368   0.392   0.394   0.402   0.393   0.395   0.415   0.443   0.456   0.422   0.437   0.407   0.377   0.394   0.352   0.379   0.381   0.390   0.394   0.427   0.422   0.433   0.449   0.465   0.457   0.454   0.432   0.428   0.431   0.413   0.451   0.448   0.432   0.437   0.427   0.392   0.380   0.363   0.372   0.416   0.407   0.406   0.420   0.415   0.421   0.414   0.414   0.398   0.425   0.419   0.385   0.412   0.440   0.443   0.420   0.459   0.472   0.447   0.422   0.412   0.395   0.358   0.342   0.372   0.392   0.394   0.418   0.385   0.406   0.401   0.394   0.401   0.394   0.387   0.404
    38.20    0.394   0.382   0.369   0.370   0.374   0.353   0.331   0.357   0.364   0.353   0.359   0.372   0.371   0.327   0.312   0.315   0.334   0.308   0.306   0.292   0.313   0.347   0.379   0.395   0.414   0.427   0.384   0.368   0.375   0.372   0.347   0.350   0.376   0.364   0.365   0.364   0.356   0.367   0.397   0.397   0.388   0.374   0.350   0.358   0.370   0.355   0.379   0.378   0.398   0.406   0.418   0.386   0.371   0.365   0.366   0.375   0.424   0.444   0.455   0.461   0.440   0.436   0.461   0.460   0.433   0.421   0.417   0.428   0.397   0.397   0.390   0.371   0.391   0.399   0.383   0.407   0.388   0.402   0.383   0.383   0.369   0.382   0.385   0.380   0.348   0.364   0.362   0.396   0.399   0.415   0.409   0.389   0.371   0.390   0.381   0.372   0.366   0.361   0.379   0.376   0.371   0.376   0.396   0.412   0.434   0.433   0.445   0.436   0.429   0.435   0.403   0.422   0.426   0.410   0.402   0.378   0.384   0.361   0.352   0.370   0.389   0.418   0.441   0.445   0.419   0.445   0.481   0.425   0.440   0.432   0.410   0.390   0.377   0.365   0.372   0.376   0.416   0.398   0.426   0.416   0.412   0.443   0.430   0.438   0.427   0.420   0.433   0.448   0.443   0.434   0.417   0.426   0.407   0.403   0.380   0.353   0.401   0.446   0.431   0.419   0.437   0.430   0.416   0.405   0.416   0.426   0.444   0.454   0.428   0.432   0.431   0.440   0.420   0.455   0.477   0.462   0.434   0.410   0.361   0.358   0.346   0.391   0.391   0.400   0.427   0.409   0.396   0.394   0.378   0.394   0.387   0.383   0.387
    28.90    0.345   0.351   0.389   0.377   0.389   0.341   0.354   0.371   0.384   0.358   0.365   0.367   0.340   0.324   0.332   0.311   0.313   0.277   0.297   0.307   0.334   0.349   0.386   0.388   0.393   0.410   0.398   0.427   0.393   0.404   0.383   0.384   0.383   0.379   0.389   0.360   0.371   0.371   0.396   0.391   0.380   0.337   0.344   0.366   0.370   0.359   0.382   0.375   0.378   0.415   0.415   0.390   0.394   0.412   0.380   0.394   0.419   0.444   0.441   0.434   0.437   0.454   0.458   0.432   0.442   0.396   0.389   0.427   0.397   0.376   0.370   0.391   0.392   0.413   0.409   0.409   0.384   0.382   0.361   0.377   0.346   0.345   0.345   0.386   0.391   0.405   0.403   0.405   0.401   0.419   0.419   0.409   0.373   0.411   0.379   0.375   0.366   0.343   0.341   0.382   0.395   0.390   0.410   0.400   0.410   0.409   0.435   0.460   0.448   0.427   0.392   0.411   0.406   0.403   0.408   0.392   0.399   0.413   0.374   0.367   0.387   0.409   0.448   0.445   0.456   0.448   0.459   0.427   0.441   0.407   0.423   0.393   0.383   0.401   0.400   0.398   0.398   0.390   0.425   0.402   0.407   0.408   0.410   0.422   0.432   0.422   0.431   0.453   0.462   0.437   0.425   0.404   0.424   0.391   0.392   0.380   0.391   0.420   0.415   0.428   0.422   0.424   0.434   0.409   0.438   0.458   0.465   0.465   0.465   0.440   0.416   0.416   0.420   0.441   0.449   0.446   0.426   0.408   0.374   0.368   0.360   0.391   0.388   0.367   0.389   0.403   0.440   0.415   0.380   0.369   0.389   0.399   0.405
    19.60    0.356   0.341   0.361   0.357   0.388   0.369   0.362   0.358   0.377   0.377   0.374   0.351   0.334   0.320   0.318   0.311   0.299   0.294   0.304   0.312   0.322   0.334   0.370   0.382   0.352   0.397   0.411   0.435   0.409   0.396   0.389   0.378   0.395   0.415   0.385   0.375   0.374   0.379   0.380   0.367   0.381   0.344   0.368   0.399   0.391   0.393   0.405   0.388   0.402   0.410   0.416   0.416   0.408   0.387   0.403   0.416   0.426   0.428   0.418   0.406   0.416   0.446   0.441   0.444   0.437   0.410   0.401   0.397   0.403   0.408   0.386   0.402   0.415   0.427   0.415   0.413   0.411   0.393   0.371   0.343   0.359   0.354   0.350   0.400   0.428   0.411   0.404   0.407   0.410   0.411   0.406   0.400   0.422   0.425   0.406   0.362   0.336   0.340   0.343   0.388   0.403   0.392   0.409   0.397   0.390   0.387   0.419   0.426   0.433   0.399   0.390   0.379   0.411   0.399   0.406   0.419   0.420   0.395   0.382   0.377   0.405   0.404   0.421   0.452   0.439   0.439   0.422   0.433   0.431   0.396   0.426   0.395   0.387   0.397   0.399   0.365   0.366   0.413   0.428   0.394   0.418   0.422   0.407   0.440   0.443   0.439   0.438   0.427   0.437   0.442   0.407   0.403   0.425   0.393   0.365   0.351   0.399   0.437   0.452   0.444   0.419   0.436   0.458   0.436   0.447   0.463   0.481   0.478   0.449   0.427   0.394   0.388   0.393   0.422   0.438   0.414   0.401   0.364   0.399   0.383   0.372   0.364   0.365   0.346   0.376   0.392   0.408   0.416   0.392   0.384   0.390   0.380   0.408
    10.30    0.353   0.357   0.373   0.365   0.358   0.356   0.367   0.392   0.380   0.351   0.370   0.343   0.345   0.337   0.332   0.309   0.307   0.335   0.326   0.354   0.347   0.353   0.372   0.373   0.367   0.378   0.364   0.411   0.418   0.410   0.397   0.420   0.402   0.389   0.399   0.369   0.387   0.375   0.370   0.377   0.363   0.364   0.385   0.399   0.383   0.387   0.387   0.371   0.418   0.427   0.411   0.408   0.396   0.401   0.424   0.422   0.411   0.429   0.408   0.417   0.446   0.419   0.451   0.447   0.441   0.448   0.412   0.420   0.391   0.408   0.412   0.420   0.422   0.427   0.418   0.419   0.417   0.392   0.381   0.391   0.371   0.416   0.409   0.416   0.422   0.421   0.424   0.427   0.423   0.391   0.427   0.417   0.421   0.417   0.392   0.370   0.342   0.360   0.359   0.381   0.387   0.385   0.391   0.367   0.373   0.400   0.434   0.429   0.424   0.388   0.377   0.365   0.381   0.398   0.387   0.428   0.445   0.407   0.397   0.376   0.394   0.418   0.388   0.435   0.425   0.440   0.410   0.391   0.396   0.374   0.413   0.401   0.402   0.389   0.372   0.363   0.370   0.393   0.410   0.396   0.392   0.410   0.420   0.446   0.463   0.443   0.450   0.437   0.435   0.443   0.411   0.431   0.398   0.396   0.380   0.391   0.385   0.431   0.455   0.427   0.425   0.445   0.443   0.464   0.479   0.439   0.455   0.466   0.426   0.416   0.411   0.420   0.403   0.407   0.401   0.389   0.386   0.390   0.363   0.365   0.371   0.364   0.363   0.359   0.385   0.390   0.402   0.415   0.417   0.399   0.377   0.403   0.416
     1.00    0.382   0.356   0.371   0.372   0.371   0.372   0.357   0.385   0.358   0.359   0.345   0.357   0.365   0.341   0.327   0.301   0.329   0.360   0.371   0.374   0.362   0.354   0.368   0.363   0.349   0.372   0.376   0.402   0.420   0.415   0.409   0.433   0.411   0.404   0.382   0.377   0.363   0.362   0.356   0.350   0.357   0.368   0.375   0.377   0.380   0.389   0.382   0.384   0.403   0.412   0.410   0.412   0.371   0.387   0.433   0.436   0.423   0.455   0.409   0.420   0.440   0.451   0.419   0.448   0.424   0.436   0.434   0.431   0.427   0.409   0.416   0.399   0.402   0.393   0.379   0.411   0.428   0.435   0.404   0.403   0.371   0.412   0.416   0.424   0.395   0.409   0.410   0.421   0.428   0.387   0.415   0.417   0.428   0.413   0.392   0.368   0.364   0.389   0.393   0.406   0.428   0.414   0.388   0.366   0.359   0.386   0.397   0.429   0.414   0.384   0.355   0.388   0.366   0.382   0.384   0.421   0.445   0.416   0.409   0.391   0.423   0.409   0.404   0.414   0.432   0.446   0.414   0.384   0.400   0.392   0.400   0.437   0.413   0.381   0.379   0.353   0.362   0.383   0.394   0.389   0.396   0.390   0.408   0.426   0.414   0.443   0.423   0.429   0.425   0.434   0.452   0.444   0.402   0.418   0.398   0.396   0.421   0.431   0.439   0.415   0.420   0.423   0.416   0.442   0.463   0.439   0.452   0.438   0.451   0.431   0.420   0.403   0.411   0.421   0.411   0.398   0.383   0.366   0.377   0.363   0.347   0.358   0.363   0.348   0.369   0.389   0.407   0.411   0.394   0.382   0.402   0.376   0.410

   Height   Standard deviation at grid points for the v component:
   354.40    0.308   0.315   0.324   0.331   0.320   0.300   0.298   0.285   0.286   0.287   0.297   0.314   0.318   0.300   0.311   0.301   0.304   0.298   0.309   0.298   0.309   0.289   0.294   0.297   0.302   0.297   0.310   0.309   0.312   0.306   0.300   0.271   0.262   0.285   0.301   0.302   0.305   0.286   0.290   0.293   0.288   0.292   0.305   0.310   0.306   0.319   0.321   0.311   0.311   0.309   0.303   0.313   0.316   0.311   0.318   0.305   0.306   0.294   0.316   0.312   0.300   0.296   0.303   0.302   0.310   0.322   0.328   0.316   0.328   0.322   0.312   0.318   0.317   0.322   0.314   0.301   0.301   0.298   0.291   0.286   0.299   0.288   0.284   0.286   0.301   0.305   0.299   0.287   0.289   0.292   0.268   0.275   0.282   0.270   0.291   0.297   0.277   0.282   0.289   0.299   0.288   0.287   0.290   0.291   0.303   0.291   0.294   0.295   0.323   0.332   0.316   0.322   0.317   0.322   0.315   0.317   0.327   0.312   0.323   0.330   0.300   0.313   0.305   0.305   0.291   0.286   0.293   0.292   0.287   0.292   0.299   0.320   0.307   0.302   0.290   0.286   0.293   0.312   0.323   0.341   0.334   0.317   0.311   0.321   0.320   0.314   0.321   0.333   0.323   0.318   0.316   0.343   0.338   0.319   0.311   0.299   0.297   0.300   0.305   0.316   0.303   0.319   0.304   0.314   0.325   0.329   0.330   0.336   0.324   0.337   0.316   0.316   0.319   0.322   0.325   0.327   0.349   0.348   0.352   0.347   0.335   0.346   0.324   0.347   0.341   0.351   0.348   0.353   0.338   0.339   0.341   0.337   0.318
   345.10    0.320   0.319   0.317   0.306   0.306   0.285   0.284   0.286   0.289   0.292   0.305   0.301   0.299   0.290   0.293   0.300   0.306   0.287   0.288   0.295   0.298   0.294   0.292   0.283   0.319   0.314   0.298   0.294   0.286   0.301   0.307   0.299   0.299   0.296   0.297   0.310   0.304   0.287   0.280   0.290   0.298   0.318   0.323   0.326   0.325   0.312   0.319   0.314   0.317   0.321   0.311   0.324   0.329   0.306   0.311   0.316   0.297   0.288   0.288   0.295   0.294   0.289   0.315   0.312   0.322   0.320   0.334   0.332   0.320   0.316   0.308   0.317   0.316   0.312   0.300   0.316   0.321   0.315   0.289   0.297   0.289   0.279   0.281   0.295   0.306   0.303   0.300   0.277   0.284   0.276   0.269   0.261   0.272   0.283   0.276   0.278   0.286   0.274   0.285   0.285   0.286   0.278   0.288   0.286   0.302   0.301   0.307   0.310   0.309   0.325   0.323   0.323   0.313   0.319   0.319   0.305   0.326   0.310   0.316   0.317   0.330   0.316   0.312   0.289   0.296   0.300   0.306   0.311   0.302   0.288   0.286   0.304   0.314   0.309   0.316   0.297   0.292   0.320   0.330   0.320   0.319   0.328   0.316   0.317   0.311   0.310   0.316   0.322   0.338   0.316   0.325   0.338   0.332   0.308   0.310   0.313   0.331   0.322   0.328   0.318   0.324   0.323   0.316   0.303   0.317   0.330   0.334   0.348   0.344   0.344   0.342   0.320   0.318   0.328   0.312   0.336   0.347   0.342   0.337   0.341   0.334   0.319   0.321   0.318   0.340   0.358   0.341   0.336   0.332   0.326   0.332   0.326   0.311
   335.80    0.313   0.315   0.319   0.325   0.310   0.285   0.278   0.283   0.280   0.291   0.294   0.291   0.298   0.320   0.291   0.281   0.289   0.304   0.290   0.294   0.297   0.298   0.297   0.310   0.315   0.306   0.298   0.270   0.291   0.308   0.302   0.299   0.296   0.310   0.312   0.314   0.304   0.293   0.282   0.306   0.327   0.359   0.342   0.351   0.334   0.314   0.309   0.308   0.308   0.323   0.307   0.329   0.337   0.327   0.325   0.317   0.299   0.299   0.280   0.296   0.304   0.313   0.303   0.321   0.323   0.323   0.319   0.323   0.328   0.311   0.305   0.305   0.303   0.298   0.311   0.305   0.314   0.316   0.289   0.290   0.303   0.289   0.288   0.299   0.301   0.290   0.301   0.286   0.278   0.266   0.269   0.267   0.277   0.281   0.268   0.272   0.279   0.284   0.296   0.298   0.280   0.287   0.290   0.290   0.282   0.298   0.292   0.308   0.310   0.320   0.315   0.335   0.331   0.320   0.321   0.301   0.305   0.300   0.285   0.305   0.314   0.301   0.294   0.296   0.300   0.307   0.312   0.316   0.292   0.294   0.293   0.305   0.302   0.314   0.313   0.318   0.303   0.319   0.319   0.320   0.321   0.324   0.327   0.316   0.329   0.335   0.306   0.314   0.314   0.321   0.329   0.328   0.319   0.310   0.303   0.317   0.321   0.328   0.334   0.298   0.315   0.333   0.310   0.292   0.303   0.318   0.325   0.331   0.326   0.341   0.337   0.329   0.329   0.309   0.324   0.344   0.336   0.339   0.343   0.331   0.314   0.317   0.317   0.326   0.334   0.343   0.335   0.320   0.316   0.319   0.326   0.334   0.308
   326.50    0.322   0.325   0.335   0.313   0.312   0.300   0.291   0.277   0.283   0.276   0.278   0.296   0.307   0.321   0.311   0.296   0.295   0.293   0.304   0.291   0.295   0.297   0.308   0.315   0.304   0.292   0.298   0.295   0.305   0.291   0.290   0.294   0.297   0.303   0.301   0.317   0.311   0.303   0.315   0.312   0.320   0.340   0.345   0.333   0.316   0.314   0.308   0.322   0.324   0.318   0.310   0.317   0.323   0.336   0.319   0.286   0.294   0.310   0.305   0.289   0.289   0.309   0.312   0.321   0.321   0.308   0.305   0.317   0.309   0.291   0.284   0.289   0.288   0.299   0.317   0.303   0.310   0.309   0.307   0.300   0.304   0.311   0.302   0.310   0.303   0.294   0.310   0.288   0.290   0.286   0.276   0.272   0.288   0.271   0.288   0.295   0.287   0.292   0.290   0.310   0.294   0.286   0.293   0.286   0.292   0.295   0.292   0.308   0.318   0.311   0.304   0.318   0.322   0.305   0.303   0.281   0.305   0.300   0.303   0.311   0.323   0.291   0.296   0.296   0.298   0.304   0.304   0.291   0.282   0.290   0.283   0.297   0.296   0.307   0.313   0.324   0.319   0.325   0.335   0.328   0.325   0.331   0.344   0.323   0.328   0.311   0.321   0.326   0.322   0.339   0.322   0.321   0.307   0.315   0.310   0.313   0.305   0.307   0.295   0.310   0.320   0.324   0.315   0.300   0.307   0.328   0.336   0.331   0.333   0.337   0.344   0.327   0.307   0.301   0.314   0.330   0.339   0.341   0.334   0.350   0.333   0.331   0.319   0.344   0.341   0.335   0.315   0.309   0.313   0.327   0.330   0.334   0.322
[...]
   103.30    0.189   0.185   0.190   0.190   0.197   0.190   0.191   0.190   0.186   0.192   0.193   0.191   0.190   0.194   0.193   0.186   0.185   0.185   0.179   0.180   0.178   0.183   0.188   0.189   0.185   0.189   0.195   0.198   0.194   0.195   0.197   0.188   0.187   0.186   0.186   0.198   0.189   0.182   0.184   0.187   0.190   0.188   0.188   0.187   0.184   0.190   0.191   0.195   0.193   0.186   0.184   0.186   0.175   0.188   0.194   0.187   0.181   0.186   0.187   0.190   0.188   0.190   0.197   0.191   0.194   0.192   0.192   0.185   0.189   0.193   0.188   0.185   0.179   0.184   0.186   0.187   0.182   0.182   0.189   0.192   0.192   0.190   0.192   0.193   0.189   0.195   0.191   0.196   0.190   0.186   0.190   0.195   0.195   0.196   0.203   0.203   0.196   0.196   0.195   0.196   0.187   0.191   0.193   0.200   0.201   0.188   0.190   0.193   0.194   0.196   0.194   0.185   0.188   0.180   0.182   0.187   0.181   0.185   0.180   0.181   0.179   0.179   0.184   0.189   0.184   0.189   0.193   0.192   0.187   0.183   0.190   0.188   0.187   0.178   0.182   0.184   0.188   0.188   0.187   0.187   0.181   0.187   0.182   0.191   0.186   0.192   0.195   0.185   0.191   0.198   0.195   0.191   0.193   0.193   0.191   0.194   0.193   0.196   0.191   0.189   0.185   0.191   0.193   0.195   0.189   0.197   0.201   0.201   0.198   0.192   0.190   0.194   0.191   0.184   0.178   0.180   0.182   0.181   0.186   0.188   0.183   0.180   0.180   0.191   0.188   0.191   0.196   0.191   0.189   0.197   0.194   0.193   0.188
    94.00    0.186   0.184   0.187   0.195   0.199   0.192   0.185   0.184   0.181   0.184   0.191   0.190   0.184   0.191   0.190   0.191   0.188   0.190   0.183   0.181   0.183   0.186   0.190   0.190   0.191   0.186   0.191   0.197   0.193   0.184   0.184   0.187   0.187   0.183   0.183   0.195   0.192   0.189   0.182   0.185   0.187   0.191   0.186   0.192   0.190   0.190   0.186   0.186   0.190   0.188   0.181   0.184   0.182   0.185   0.190   0.186   0.192   0.185   0.193   0.189   0.186   0.198   0.196   0.194   0.188   0.184   0.188   0.185   0.190   0.192   0.186   0.188   0.184   0.186   0.186   0.184   0.183   0.185   0.190   0.185   0.197   0.194   0.188   0.195   0.190   0.190   0.193   0.194   0.192   0.193   0.194   0.194   0.196   0.203   0.198   0.193   0.192   0.199   0.195   0.197   0.199   0.197   0.191   0.199   0.196   0.192   0.199   0.198   0.198   0.193   0.189   0.181   0.189   0.185   0.189   0.192   0.189   0.188   0.188   0.182   0.185   0.184   0.180   0.185   0.191   0.186   0.188   0.186   0.191   0.184   0.191   0.193   0.187   0.191   0.184   0.188   0.186   0.186   0.192   0.186   0.185   0.189   0.189   0.197   0.195   0.193   0.196   0.197   0.186   0.194   0.200   0.196   0.194   0.187   0.192   0.194   0.189   0.194   0.192   0.195   0.188   0.190   0.184   0.187   0.190   0.187   0.197   0.201   0.199   0.193   0.191   0.194   0.192   0.180   0.190   0.178   0.180   0.180   0.184   0.188   0.193   0.186   0.182   0.186   0.185   0.186   0.185   0.192   0.194   0.197   0.196   0.192   0.193
    84.70    0.189   0.185   0.195   0.204   0.195   0.195   0.195   0.194   0.194   0.193   0.187   0.184   0.184   0.191   0.187   0.191   0.190   0.188   0.189   0.182   0.183   0.191   0.187   0.195   0.191   0.188   0.192   0.197   0.197   0.196   0.188   0.183   0.177   0.177   0.184   0.187   0.186   0.180   0.181   0.184   0.184   0.190   0.186   0.188   0.188   0.191   0.190   0.187   0.184   0.186   0.191   0.193   0.192   0.193   0.193   0.192   0.189   0.186   0.190   0.191   0.195   0.196   0.194   0.191   0.187   0.187   0.192   0.193   0.186   0.191   0.192   0.187   0.185   0.194   0.189   0.188   0.189   0.187   0.187   0.193   0.195   0.192   0.200   0.191   0.195   0.192   0.194   0.193   0.188   0.193   0.195   0.194   0.194   0.199   0.198   0.198   0.195   0.196   0.198   0.200   0.198   0.195   0.191   0.192   0.189   0.189   0.189   0.188   0.191   0.197   0.189   0.185   0.186   0.190   0.197   0.196   0.189   0.188   0.184   0.182   0.190   0.185   0.185   0.182   0.187   0.190   0.185   0.190   0.192   0.186   0.190   0.191   0.191   0.185   0.190   0.183   0.189   0.193   0.188   0.185   0.186   0.194   0.192   0.199   0.193   0.192   0.195   0.198   0.198   0.195   0.193   0.193   0.192   0.184   0.187   0.195   0.195   0.194   0.193   0.192   0.193   0.188   0.189   0.185   0.189   0.187   0.195   0.194   0.197   0.191   0.196   0.192   0.188   0.184   0.186   0.183   0.181   0.186   0.187   0.187   0.190   0.188   0.182   0.186   0.180   0.186   0.191   0.189   0.193   0.196   0.196   0.197   0.201
    75.40    0.187   0.192   0.197   0.196   0.191   0.192   0.189   0.194   0.196   0.194   0.185   0.185   0.185   0.188   0.186   0.188   0.198   0.183   0.190   0.185   0.188   0.188   0.192   0.197   0.194   0.195   0.194   0.186   0.189   0.189   0.192   0.183   0.185   0.186   0.188   0.187   0.186   0.183   0.179   0.188   0.189   0.186   0.188   0.198   0.186   0.188   0.190   0.181   0.192   0.189   0.189   0.191   0.195   0.190   0.188   0.194   0.191   0.190   0.187   0.195   0.195   0.198   0.191   0.193   0.196   0.193   0.187   0.190   0.192   0.183   0.187   0.185   0.185   0.189   0.185   0.188   0.192   0.185   0.193   0.189   0.193   0.194   0.193   0.191   0.189   0.189   0.189   0.187   0.188   0.192   0.198   0.193   0.199   0.200   0.200   0.202   0.199   0.205   0.194   0.202   0.204   0.196   0.183   0.182   0.192   0.184   0.191   0.191   0.191   0.193   0.189   0.188   0.183   0.191   0.194   0.194   0.191   0.185   0.179   0.186   0.183   0.190   0.184   0.181   0.192   0.192   0.190   0.188   0.198   0.196   0.189   0.194   0.188   0.181   0.183   0.185   0.191   0.189   0.193   0.187   0.181   0.189   0.193   0.195   0.190   0.196   0.189   0.192   0.192   0.195   0.195   0.189   0.193   0.181   0.181   0.192   0.193   0.189   0.187   0.186   0.187   0.187   0.194   0.189   0.184   0.190   0.189   0.191   0.194   0.193   0.190   0.194   0.187   0.182   0.181   0.183   0.184   0.190   0.193   0.186   0.191   0.182   0.183   0.186   0.192   0.189   0.190   0.191   0.191   0.192   0.200   0.195   0.195
    66.10    0.193   0.190   0.197   0.191   0.193   0.190   0.196   0.198   0.195   0.186   0.184   0.194   0.186   0.183   0.186   0.190   0.191   0.191   0.189   0.189   0.189   0.191   0.196   0.193   0.191   0.200   0.192   0.193   0.192   0.184   0.188   0.189   0.188   0.187   0.187   0.193   0.192   0.187   0.191   0.190   0.183   0.188   0.186   0.191   0.188   0.186   0.182   0.183   0.189   0.183   0.186   0.198   0.190   0.197   0.190   0.198   0.192   0.192   0.185   0.192   0.196   0.194   0.197   0.205   0.195   0.196   0.192   0.191   0.193   0.184   0.183   0.183   0.188   0.193   0.197   0.199   0.197   0.191   0.198   0.199   0.198   0.195   0.191   0.186   0.192   0.187   0.191   0.189   0.189   0.195   0.199   0.191   0.194   0.200   0.204   0.197   0.195   0.199   0.202   0.206   0.196   0.197   0.183   0.188   0.189   0.188   0.188   0.192   0.197   0.193   0.190   0.187   0.183   0.187   0.195   0.196   0.188   0.191   0.183   0.188   0.180   0.189   0.183   0.186   0.184   0.190   0.181   0.183   0.190   0.193   0.194   0.193   0.192   0.187   0.190   0.192   0.190   0.190   0.188   0.185   0.182   0.193   0.187   0.185   0.186   0.184   0.187   0.188   0.188   0.189   0.190   0.185   0.185   0.181   0.181   0.187   0.183   0.186   0.182   0.183   0.186   0.187   0.194   0.193   0.190   0.192   0.186   0.190   0.192   0.190   0.187   0.191   0.189   0.184   0.182   0.180   0.192   0.195   0.190   0.188   0.189   0.190   0.186   0.185   0.198   0.201   0.193   0.193   0.188   0.188   0.193   0.196   0.199
    56.80    0.193   0.197   0.199   0.192   0.194   0.198   0.195   0.198   0.193   0.190   0.184   0.188   0.189   0.194   0.184   0.188   0.194   0.187   0.185   0.187   0.197   0.196   0.194   0.192   0.193   0.198   0.194   0.198   0.195   0.191   0.188   0.194   0.189   0.184   0.189   0.190   0.187   0.188   0.188   0.193   0.188   0.195   0.187   0.185   0.184   0.183   0.189   0.186   0.190   0.188   0.188   0.197   0.196   0.196   0.189   0.191   0.196   0.198   0.189   0.185   0.188   0.187   0.193   0.202   0.194   0.195   0.187   0.188   0.186   0.193   0.189   0.192   0.195   0.201   0.195   0.195   0.190   0.191   0.193   0.191   0.194   0.187   0.188   0.187   0.185   0.193   0.196   0.194   0.196   0.199   0.198   0.193   0.192   0.197   0.200   0.198   0.193   0.191   0.196   0.197   0.193   0.192   0.192   0.193   0.188   0.186   0.188   0.189   0.197   0.194   0.192   0.192   0.188   0.199   0.197   0.190   0.194   0.190   0.182   0.182   0.181   0.188   0.193   0.192   0.186   0.188   0.187   0.190   0.190   0.190   0.188   0.186   0.192   0.190   0.191   0.198   0.191   0.185   0.180   0.191   0.200   0.194   0.185   0.185   0.191   0.184   0.190   0.189   0.194   0.191   0.192   0.185   0.182   0.183   0.181   0.188   0.179   0.182   0.183   0.187   0.188   0.188   0.185   0.186   0.186   0.189   0.192   0.192   0.190   0.186   0.191   0.184   0.187   0.184   0.184   0.184   0.186   0.194   0.191   0.187   0.188   0.192   0.184   0.187   0.190   0.196   0.194   0.192   0.188   0.192   0.192   0.199   0.197
    47.50    0.194   0.195   0.205   0.198   0.201   0.201   0.191   0.193   0.195   0.196   0.187   0.188   0.188   0.187   0.193   0.193   0.192   0.187   0.183   0.192   0.194   0.194   0.188   0.195   0.194   0.201   0.197   0.193   0.195   0.192   0.191   0.197   0.196   0.187   0.188   0.188   0.189   0.188   0.198   0.191   0.187   0.192   0.189   0.190   0.187   0.186   0.188   0.190   0.186   0.193   0.189   0.195   0.195   0.194   0.183   0.187   0.193   0.189   0.187   0.183   0.192   0.190   0.196   0.191   0.191   0.194   0.195   0.190   0.193   0.192   0.190   0.188   0.188   0.194   0.191   0.187   0.185   0.189   0.187   0.185   0.189   0.187   0.188   0.191   0.187   0.190   0.190   0.191   0.197   0.200   0.192   0.197   0.197   0.193   0.191   0.198   0.197   0.194   0.192   0.187   0.191   0.184   0.187   0.183   0.188   0.184   0.188   0.190   0.197   0.201   0.197   0.195   0.190   0.193   0.185   0.191   0.190   0.192   0.190   0.191   0.189   0.193   0.199   0.194   0.192   0.185   0.193   0.194   0.193   0.194   0.188   0.188   0.192   0.193   0.196   0.200   0.198   0.192   0.186   0.188   0.191   0.188   0.186   0.187   0.191   0.187   0.187   0.189   0.189   0.193   0.192   0.184   0.185   0.189   0.182   0.183   0.184   0.179   0.185   0.185   0.188   0.189   0.187   0.185   0.184   0.185   0.182   0.190   0.184   0.189   0.190   0.185   0.185   0.186   0.185   0.186   0.183   0.188   0.190   0.195   0.191   0.194   0.199   0.191   0.195   0.195   0.195   0.189   0.188   0.192   0.191   0.200   0.194
    38.20    0.190   0.196   0.199   0.196   0.198   0.196   0.194   0.203   0.199   0.195   0.188   0.182   0.192   0.190   0.191   0.195   0.191   0.190   0.186   0.193   0.193   0.188   0.190   0.198   0.193   0.198   0.196   0.191   0.193   0.192   0.194   0.192   0.195   0.190   0.192   0.189   0.188   0.187   0.192   0.198   0.202   0.198   0.198   0.191   0.188   0.188   0.189   0.189   0.186   0.186   0.195   0.197   0.191   0.193   0.185   0.183   0.186   0.187   0.184   0.183   0.186   0.197   0.193   0.195   0.196   0.191   0.194   0.192   0.183   0.188   0.188   0.182   0.185   0.190   0.194   0.195   0.188   0.189   0.185   0.182   0.188   0.193   0.190   0.193   0.188   0.191   0.189   0.192   0.193   0.193   0.190   0.186   0.192   0.195   0.193   0.195   0.201   0.195   0.191   0.187   0.184   0.185   0.187   0.185   0.191   0.194   0.188   0.191   0.186   0.200   0.193   0.190   0.191   0.186   0.182   0.189   0.192   0.193   0.197   0.192   0.192   0.191   0.191   0.188   0.190   0.190   0.195   0.194   0.189   0.184   0.191   0.194   0.195   0.195   0.191   0.192   0.200   0.195   0.187   0.182   0.187   0.189   0.190   0.190   0.187   0.183   0.186   0.190   0.190   0.192   0.190   0.191   0.186   0.189   0.189   0.182   0.182   0.180   0.182   0.188   0.183   0.183   0.190   0.187   0.185   0.186   0.184   0.187   0.185   0.178   0.183   0.183   0.179   0.181   0.183   0.184   0.179   0.183   0.190   0.193   0.200   0.193   0.191   0.193   0.194   0.197   0.196   0.202   0.201   0.191   0.200   0.201   0.201
    28.90    0.190   0.194   0.192   0.191   0.199   0.194   0.198   0.200   0.199   0.195   0.194   0.188   0.192   0.190   0.188   0.193   0.192   0.186   0.190   0.195   0.194   0.194   0.196   0.196   0.197   0.194   0.198   0.197   0.193   0.191   0.193   0.197   0.197   0.198   0.194   0.190   0.186   0.190   0.197   0.198   0.197   0.194   0.202   0.200   0.198   0.188   0.189   0.186   0.190   0.195   0.195   0.189   0.190   0.188   0.189   0.193   0.194   0.195   0.192   0.187   0.192   0.193   0.194   0.196   0.199   0.189   0.191   0.192   0.189   0.185   0.190   0.188   0.189   0.192   0.196   0.187   0.188   0.186   0.185   0.188   0.186   0.196   0.194   0.194   0.184   0.185   0.186   0.191   0.190   0.191   0.191   0.191   0.191   0.197   0.192   0.193   0.197   0.199   0.194   0.184   0.188   0.189   0.193   0.187   0.193   0.194   0.195   0.199   0.196   0.189   0.191   0.187   0.188   0.191   0.179   0.189   0.191   0.195   0.197   0.190   0.191   0.193   0.185   0.190   0.193   0.194   0.191   0.187   0.186   0.186   0.197   0.194   0.198   0.195   0.190   0.193   0.192   0.183   0.178   0.183   0.181   0.188   0.190   0.194   0.190   0.191   0.185   0.188   0.190   0.192   0.192   0.192   0.187   0.190   0.198   0.189   0.192   0.191   0.187   0.192   0.187   0.190   0.188   0.195   0.193   0.182   0.182   0.185   0.182   0.179   0.182   0.185   0.183   0.184   0.185   0.184   0.185   0.187   0.193   0.193   0.194   0.195   0.195   0.189   0.192   0.199   0.201   0.200   0.202   0.196   0.195   0.197   0.201
    19.60    0.193   0.193   0.193   0.191   0.186   0.192   0.198   0.202   0.203   0.196   0.196   0.192   0.190   0.194   0.182   0.192   0.195   0.191   0.187   0.193   0.194   0.193   0.199   0.202   0.196   0.193   0.190   0.197   0.200   0.196   0.197   0.197   0.201   0.201   0.195   0.192   0.185   0.195   0.201   0.199   0.193   0.196   0.200   0.201   0.196   0.186   0.186   0.186   0.186   0.193   0.187   0.193   0.194   0.187   0.192   0.192   0.198   0.201   0.191   0.192   0.195   0.193   0.194   0.193   0.195   0.197   0.192   0.193   0.188   0.189   0.192   0.193   0.188   0.196   0.193   0.192   0.193   0.187   0.190   0.192   0.189   0.198   0.198   0.189   0.192   0.189   0.190   0.191   0.190   0.188   0.186   0.189   0.189   0.194   0.190   0.197   0.193   0.192   0.183   0.189   0.188   0.189   0.192   0.195   0.190   0.194   0.196   0.198   0.194   0.190   0.184   0.187   0.194   0.188   0.188   0.186   0.192   0.191   0.194   0.194   0.196   0.195   0.196   0.192   0.189   0.191   0.194   0.193   0.197   0.188   0.195   0.190   0.195   0.197   0.190   0.187   0.189   0.185   0.180   0.185   0.184   0.196   0.189   0.192   0.193   0.190   0.185   0.193   0.191   0.189   0.185   0.186   0.188   0.191   0.186   0.186   0.191   0.187   0.193   0.191   0.191   0.188   0.196   0.192   0.186   0.182   0.185   0.185   0.180   0.179   0.184   0.184   0.181   0.181   0.187   0.185   0.187   0.193   0.192   0.192   0.193   0.192   0.188   0.194   0.193   0.199   0.192   0.193   0.197   0.192   0.190   0.195   0.194
    10.30    0.183   0.194   0.195   0.195   0.197   0.194   0.195   0.204   0.205   0.202   0.193   0.191   0.190   0.193   0.194   0.185   0.189   0.184   0.187   0.197   0.193   0.190   0.191   0.195   0.199   0.199   0.194   0.197   0.202   0.198   0.194   0.195   0.198   0.194   0.196   0.193   0.192   0.199   0.196   0.198   0.201   0.198   0.200   0.198   0.193   0.196   0.189   0.190   0.187   0.189   0.193   0.191   0.189   0.188   0.190   0.197   0.197   0.191   0.198   0.193   0.195   0.194   0.188   0.194   0.205   0.196   0.186   0.191   0.191   0.187   0.188   0.183   0.185   0.189   0.189   0.187   0.186   0.186   0.187   0.191   0.193   0.197   0.197   0.192   0.199   0.193   0.189   0.186   0.190   0.185   0.184   0.190   0.197   0.200   0.199   0.200   0.195   0.196   0.191   0.190   0.183   0.191   0.193   0.190   0.190   0.190   0.201   0.204   0.200   0.197   0.195   0.189   0.185   0.189   0.184   0.188   0.189   0.183   0.185   0.189   0.192   0.201   0.201   0.196   0.193   0.194   0.200   0.194   0.191   0.192   0.192   0.195   0.194   0.187   0.188   0.190   0.188   0.189   0.188   0.188   0.195   0.187   0.188   0.190   0.186   0.190   0.193   0.187   0.189   0.185   0.183   0.186   0.183   0.190   0.196   0.186   0.188   0.188   0.188   0.195   0.187   0.191   0.195   0.193   0.191   0.193   0.183   0.182   0.183   0.187   0.190   0.184   0.183   0.182   0.191   0.186   0.194   0.189   0.190   0.189   0.185   0.186   0.191   0.190   0.191   0.195   0.196   0.195   0.196   0.197   0.193   0.193   0.192
     1.00    0.190   0.192   0.196   0.193   0.190   0.193   0.196   0.199   0.200   0.199   0.201   0.193   0.191   0.193   0.189   0.186   0.189   0.192   0.198   0.197   0.191   0.189   0.190   0.197   0.203   0.197   0.195   0.200   0.199   0.205   0.195   0.194   0.191   0.189   0.196   0.198   0.193   0.196   0.197   0.196   0.203   0.196   0.199   0.196   0.195   0.198   0.193   0.189   0.188   0.189   0.189   0.192   0.192   0.190   0.199   0.199   0.198   0.196   0.201   0.194   0.193   0.192   0.190   0.195   0.199   0.194   0.191   0.188   0.186   0.184   0.186   0.185   0.186   0.186   0.190   0.187   0.190   0.192   0.184   0.188   0.190   0.185   0.195   0.195   0.198   0.193   0.190   0.182   0.180   0.189   0.184   0.192   0.190   0.195   0.195   0.199   0.187   0.185   0.192   0.188   0.182   0.185   0.188   0.194   0.185   0.192   0.201   0.202   0.199   0.194   0.203   0.191   0.190   0.192   0.191   0.190   0.189   0.192   0.190   0.195   0.190   0.194   0.201   0.196   0.197   0.191   0.196   0.189   0.192   0.197   0.187   0.192   0.191   0.194   0.186   0.191   0.183   0.186   0.187   0.183   0.195   0.190   0.190   0.189   0.185   0.188   0.192   0.190   0.186   0.184   0.188   0.186   0.182   0.188   0.192   0.185   0.180   0.186   0.183   0.186   0.182   0.189   0.187   0.189   0.189   0.192   0.180   0.182   0.186   0.188   0.193   0.188   0.182   0.184   0.190   0.185   0.188   0.187   0.183   0.186   0.182   0.187   0.187   0.186   0.189   0.190   0.199   0.197   0.194   0.193   0.194   0.194   0.196

   Mean standard deviation across all grid points:
      u component:    0.391 m/s
      v component:    0.308 m/s
      w component:    0.190 m/s


U-component (X) statistics from the interpolated hub point:

   Mean =   9.7063 m/s
   TI   =   3.8408 %


Processing complete.  2.14336E+05 CPU seconds used.
