
This summary file was generated by TurbSim (from OpenFAST-v3.5.3) on 20-Apr-2025 at 12:19:05.


Runtime Options:

 376932526  Random seed #1
    RANLUX  Type of random number generator
         F  Output binary HH turbulence parameters?
         F  Output formatted turbulence parameters?
         F  Output AeroDyn HH files?
         T  Output AeroDyn FF files?
         F  Output BLADED FF files?
         F  Output tower data?
         F  Output HAWC FF files?
         F  Output formatted FF files?
         T  Output coherent turbulence time step file?
 0 -  NONE  IEC turbulence models scaled to exact specified standard deviation


Turbine/Model Specifications:

        37  Vertical grid-point matrix dimension
        35  Horizontal grid-point matrix dimension
     0.250  Time step [seconds]
   900.000  Analysis time [seconds]
   900.000  Usable output time [seconds]
    89.350  Hub height [m]
   167.400  Grid height [m]
   158.100  Grid width [m]
     0.000  Vertical flow angle [degrees]
     0.000  Horizontal flow angle [degrees]


Meteorological Boundary Conditions:

    TIMESR  User-input time series spectral model
       N/A  IEC standard
       N/A  IEC turbulence characteristic
       N/A  IEC turbulence type
       N/A  IEC Extreme Turbulence Model (ETM) "c" parameter [m/s]
       PL   Wind profile type
    90.000  Reference height [m]
    10.000  Reference wind speed [m/s]
       N/A  Jet height [m]
     0.120  Power law exponent
     0.030  Surface roughness length [m]


Non-IEC Meteorological Boundary Conditions:

    45.000  Site latitude [degrees]
     0.050  Gradient Richardson number
     0.480  Friction or shear velocity [m/s]
       N/A  Mixing layer depth [m]
       N/A  Mean hub u'w' Reynolds stress
       N/A  Mean hub u'v' Reynolds stress
       N/A  Mean hub v'w' Reynolds stress


Spatial Coherence Models:

       IEC  u-component coherence model
       IEC  v-component coherence model
       IEC  w-component coherence model
(   12.000, 0.353E-03)  u-component coherence parameters
(   12.000, 0.353E-03)  v-component coherence parameters
(   12.000, 0.353E-03)  w-component coherence parameters
       N/A  Coherence exponent


Coherent Turbulence Scaling Parameters:

.\EventData
            Name of the path containing the coherent turbulence data files
       les  Type of coherent turbulence data files
     1.000  Disturbance scale (ratio of wave height to rotor diameter)
     0.500  Fractional location of tower centerline from right
     0.500  Fractional location of hub height from the bottom of the dataset
    30.000  Minimum start time for coherent structures [seconds]


Profiles from User-Defined Time-Series Input:

  Height   Wind Speed   Horizontal Angle   Vertical Angle
   (m)        (m/s)          (deg)              (deg)    
  ------   ----------   ----------------   --------------
   94.00      10.00          -0.63                0.00


You have requested that the following file(s) be generated:

   /kfs3/scratch/agupta/Projects/RL_Incubator/FinalRuns_Veer/Seed4/./FFSim_Seed4/Cond00_v10.0_PL0.12_TI5.0/Case3_wdirp06/Seed_6/TurbSim/HighT11.bts (AeroDyn/TurbSim full-field wind file)


Turbulence Simulation Scaling Parameter Summary:

   Turbulence model used                            =  User-input time series
   Gradient Richardson number                       =    0.050
   Monin-Obukhov (M-O) z/L parameter                =    0.067
   Monin-Obukhov (M-O) length scale                 = 1340.250 m
   Mean wind speed at hub height                    =    9.991 m/s

   Wind profile type                                =  Power law
   Power law exponent                               =    0.120
   Mean shear across rotor disk                     =    0.019 (m/s)/m
   Assumed rotor diameter                           =  158.100 m
   Surface roughness length                         =    0.030 m

   Nyquist frequency of turbulent wind field        =    2.000 Hz

   Number of time steps in the FFT                  =     3600
   Number of time steps output                      =     3600
   Number of points simulated                       =     1296


Mean Flow Angles:

   Vertical   =   0.0 degrees
   Horizontal =   0.0 degrees

Mean Wind Speed Profile:

   Height    Wind Speed   Horizontal Angle  Vertical Angle  U-comp (X)   V-comp (Y)   W-comp (Z)
     (m)        (m/s)         (degrees)       (degrees)       (m/s)        (m/s)        (m/s)   
   ------    ----------   ----------------  --------------  ----------   ----------   ----------
    168.4       10.78            0.00            0.00         10.78         0.00         0.00
    163.7       10.74            0.00            0.00         10.74         0.00         0.00
    159.1       10.71            0.00            0.00         10.71         0.00         0.00
    154.4       10.67            0.00            0.00         10.67         0.00         0.00
    149.8       10.63            0.00            0.00         10.63         0.00         0.00
    145.1       10.59            0.00            0.00         10.59         0.00         0.00
    140.5       10.55            0.00            0.00         10.55         0.00         0.00
    135.8       10.51            0.00            0.00         10.51         0.00         0.00
    131.2       10.46            0.00            0.00         10.46         0.00         0.00
    126.5       10.42            0.00            0.00         10.42         0.00         0.00
    121.9       10.37            0.00            0.00         10.37         0.00         0.00
    117.2       10.32            0.00            0.00         10.32         0.00         0.00
    112.6       10.27            0.00            0.00         10.27         0.00         0.00
    107.9       10.22            0.00            0.00         10.22         0.00         0.00
    103.3       10.17            0.00            0.00         10.17         0.00         0.00
     98.6       10.11            0.00            0.00         10.11         0.00         0.00
     94.0       10.05            0.00            0.00         10.05         0.00         0.00
     89.3        9.99            0.00            0.00          9.99         0.00         0.00
     84.7        9.93            0.00            0.00          9.93         0.00         0.00
     80.0        9.86            0.00            0.00          9.86         0.00         0.00
     75.4        9.79            0.00            0.00          9.79         0.00         0.00
     70.7        9.72            0.00            0.00          9.72         0.00         0.00
     66.1        9.64            0.00            0.00          9.64         0.00         0.00
     61.4        9.55            0.00            0.00          9.55         0.00         0.00
     56.8        9.46            0.00            0.00          9.46         0.00         0.00
     52.1        9.37            0.00            0.00          9.37         0.00         0.00
     47.5        9.26            0.00            0.00          9.26         0.00         0.00
     42.8        9.15            0.00            0.00          9.15         0.00         0.00
     38.2        9.02            0.00            0.00          9.02         0.00         0.00
     33.5        8.88            0.00            0.00          8.88         0.00         0.00
     28.9        8.73            0.00            0.00          8.73         0.00         0.00
     24.2        8.54            0.00            0.00          8.54         0.00         0.00
     19.6        8.33            0.00            0.00          8.33         0.00         0.00
     14.9        8.06            0.00            0.00          8.06         0.00         0.00
     10.3        7.71            0.00            0.00          7.71         0.00         0.00
      5.6        7.17            0.00            0.00          7.17         0.00         0.00
      1.0        5.83            0.00            0.00          5.83         0.00         0.00


Harvested Random Seeds after Generation of the Random Numbers:

     65026800 K 1
            0 K 2


Hub-Height Simulated Turbulence Statistical Summary:

   Type of Wind        Min (m/s)   Mean (m/s)    Max (m/s)  Sigma (m/s)       TI (%)
   ----------------    ---------   ----------    ---------  -----------       ------
   Longitudinal (u)         8.56         9.99        11.73        0.506        5.068
   Lateral (v)             -1.38         0.00         1.15        0.417        4.172
   Vertical (w)            -0.77        -0.00         0.66        0.220        2.200
   U component              8.56         9.99        11.73        0.506        5.068
   V component             -1.38         0.00         1.15        0.417        4.172
   W component             -0.77        -0.00         0.66        0.220        2.200
   Horizontal (U&V)         8.56        10.00        11.73        0.506        5.062
   Total                    8.56        10.00        11.74        0.506        5.060

                       Min Reynolds     Mean Reynolds    Max Reynolds    Correlation
   Product             Stress (m/s)^2   Stress (m/s)^2   Stress (m/s)^2  Coefficient
   ----------------    --------------   --------------   --------------  -----------
   u'w'                     -0.804            -0.003             0.534        -0.027
   u'v'                     -0.865             0.019             1.051         0.090
   v'w'                     -0.560             0.003             0.489         0.036


   Friction Velocity (Ustar)  =      0.055 m/s
   Maximum Instantaneous TKE  =      1.604 (m/s)^2
   Maximum Instantaneous CTKE =      0.622 (m/s)^2


Grid Point Variance Summary:

   Y-coord  -79.05  -74.40  -69.75  -65.10  -60.45  -55.80  -51.15  -46.50  -41.85  -37.20  -32.55  -27.90  -23.25  -18.60  -13.95   -9.30   -4.65    0.00    4.65    9.30   13.95   18.60   23.25   27.90   32.55   37.20   41.85   46.50   51.15   55.80   60.45   65.10   69.75   74.40   79.05

   Height   Standard deviation at grid points for the u component:
   168.40    0.423   0.406   0.393   0.406   0.400   0.416   0.448   0.467   0.458   0.490   0.451   0.440   0.454   0.424   0.438   0.425   0.444   0.436   0.440   0.446   0.452   0.448   0.450   0.459   0.445   0.475   0.501   0.496   0.478   0.465   0.447   0.457   0.441   0.449   0.439
   163.75    0.426   0.407   0.392   0.422   0.405   0.411   0.449   0.446   0.454   0.455   0.448   0.453   0.476   0.455   0.442   0.446   0.449   0.444   0.467   0.461   0.436   0.451   0.461   0.457   0.460   0.469   0.505   0.495   0.492   0.454   0.439   0.455   0.441   0.431   0.455
   159.10    0.433   0.401   0.411   0.414   0.412   0.427   0.435   0.459   0.462   0.448   0.459   0.438   0.477   0.487   0.473   0.451   0.443   0.452   0.472   0.473   0.451   0.456   0.468   0.483   0.481   0.466   0.481   0.527   0.517   0.476   0.462   0.464   0.465   0.476   0.491
   154.45    0.406   0.400   0.395   0.420   0.412   0.431   0.425   0.429   0.448   0.424   0.435   0.429   0.476   0.477   0.488   0.471   0.467   0.515   0.481   0.503   0.481   0.500   0.489   0.467   0.491   0.491   0.480   0.538   0.541   0.517   0.478   0.454   0.471   0.504   0.501
   149.80    0.406   0.421   0.404   0.424   0.439   0.436   0.451   0.412   0.431   0.394   0.412   0.420   0.478   0.473   0.476   0.477   0.489   0.516   0.482   0.483   0.486   0.500   0.512   0.505   0.520   0.503   0.487   0.519   0.546   0.506   0.485   0.496   0.540   0.507   0.478
   145.15    0.419   0.427   0.443   0.427   0.414   0.428   0.410   0.405   0.384   0.397   0.390   0.419   0.436   0.456   0.455   0.483   0.497   0.500   0.506   0.489   0.497   0.474   0.526   0.531   0.545   0.510   0.469   0.509   0.507   0.510   0.503   0.487   0.536   0.520   0.511
   140.50    0.429   0.442   0.426   0.439   0.436   0.408   0.446   0.390   0.403   0.413   0.422   0.432   0.417   0.429   0.446   0.481   0.492   0.518   0.543   0.528   0.528   0.503   0.510   0.515   0.514   0.513   0.491   0.497   0.486   0.495   0.515   0.514   0.499   0.498   0.516
   135.85    0.395   0.407   0.407   0.404   0.425   0.432   0.443   0.436   0.401   0.404   0.404   0.405   0.410   0.417   0.432   0.454   0.458   0.496   0.540   0.531   0.533   0.531   0.523   0.501   0.520   0.504   0.507   0.492   0.481   0.518   0.544   0.502   0.510   0.489   0.489
   131.20    0.397   0.411   0.384   0.406   0.410   0.408   0.428   0.438   0.430   0.410   0.410   0.417   0.401   0.394   0.445   0.441   0.442   0.467   0.494   0.518   0.505   0.524   0.540   0.527   0.546   0.545   0.515   0.493   0.479   0.495   0.499   0.506   0.483   0.508   0.467
   126.55    0.407   0.407   0.389   0.415   0.401   0.395   0.419   0.424   0.424   0.413   0.423   0.412   0.450   0.449   0.483   0.485   0.484   0.444   0.458   0.497   0.512   0.550   0.545   0.580   0.567   0.551   0.536   0.502   0.501   0.514   0.495   0.489   0.487   0.502   0.457
   121.90    0.422   0.426   0.409   0.422   0.421   0.412   0.410   0.406   0.458   0.421   0.431   0.435   0.427   0.467   0.492   0.476   0.471   0.461   0.465   0.500   0.503   0.502   0.528   0.558   0.577   0.555   0.551   0.514   0.551   0.504   0.511   0.510   0.487   0.484   0.464
   117.25    0.426   0.414   0.418   0.424   0.426   0.436   0.424   0.429   0.454   0.460   0.452   0.472   0.477   0.506   0.501   0.486   0.494   0.511   0.512   0.504   0.504   0.494   0.535   0.536   0.564   0.572   0.539   0.516   0.546   0.542   0.529   0.534   0.521   0.542   0.507
   112.60    0.433   0.398   0.404   0.428   0.434   0.435   0.441   0.440   0.416   0.462   0.472   0.485   0.475   0.523   0.521   0.506   0.499   0.510   0.511   0.508   0.537   0.521   0.513   0.515   0.531   0.545   0.508   0.536   0.525   0.572   0.566   0.513   0.492   0.528   0.533
   107.95    0.409   0.409   0.427   0.448   0.413   0.423   0.432   0.431   0.434   0.451   0.496   0.507   0.493   0.506   0.512   0.517   0.518   0.513   0.501   0.513   0.536   0.500   0.475   0.500   0.475   0.489   0.521   0.531   0.555   0.549   0.511   0.500   0.465   0.529   0.498
   103.30    0.401   0.429   0.431   0.433   0.419   0.416   0.418   0.431   0.421   0.459   0.475   0.492   0.527   0.494   0.496   0.509   0.499   0.478   0.510   0.519   0.478   0.503   0.464   0.471   0.483   0.525   0.523   0.523   0.554   0.521   0.495   0.489   0.466   0.488   0.495
    98.65    0.405   0.417   0.392   0.406   0.432   0.427   0.432   0.431   0.422   0.443   0.446   0.459   0.492   0.502   0.513   0.502   0.478   0.478   0.524   0.507   0.483   0.489   0.482   0.437   0.448   0.520   0.534   0.557   0.517   0.523   0.495   0.462   0.449   0.455   0.476
    94.00    0.412   0.415   0.404   0.404   0.442   0.425   0.432   0.417   0.439   0.424   0.454   0.459   0.466   0.495   0.483   0.492   0.495   0.504   0.530   0.530   0.491   0.502   0.503   0.455   0.479   0.507   0.570   0.556   0.517   0.530   0.476   0.462   0.444   0.444   0.461
    89.35    0.378   0.390   0.410   0.428   0.424   0.426   0.413   0.408   0.432   0.431   0.466   0.458   0.486   0.486   0.511   0.518   0.478   0.506   0.553   0.539   0.529   0.503   0.485   0.465   0.478   0.555   0.570   0.559   0.532   0.547   0.515   0.468   0.467   0.489   0.447
    84.70    0.412   0.412   0.425   0.436   0.430   0.427   0.434   0.419   0.471   0.462   0.471   0.474   0.481   0.475   0.522   0.519   0.514   0.517   0.515   0.542   0.529   0.497   0.460   0.482   0.508   0.537   0.585   0.585   0.559   0.537   0.509   0.482   0.483   0.467   0.439
    80.05    0.417   0.417   0.415   0.425   0.449   0.449   0.460   0.452   0.454   0.463   0.494   0.487   0.476   0.486   0.522   0.543   0.483   0.486   0.535   0.548   0.523   0.508   0.461   0.484   0.523   0.556   0.562   0.593   0.567   0.528   0.510   0.497   0.460   0.442   0.415
    75.40    0.428   0.420   0.448   0.423   0.417   0.414   0.433   0.435   0.443   0.466   0.466   0.461   0.459   0.499   0.524   0.518   0.489   0.500   0.532   0.529   0.503   0.506   0.469   0.468   0.498   0.536   0.545   0.539   0.578   0.545   0.576   0.507   0.473   0.474   0.455
    70.75    0.462   0.446   0.428   0.401   0.396   0.391   0.436   0.400   0.428   0.438   0.453   0.455   0.479   0.510   0.506   0.512   0.520   0.515   0.523   0.523   0.495   0.501   0.466   0.448   0.499   0.515   0.553   0.528   0.549   0.566   0.555   0.509   0.506   0.513   0.497
    66.10    0.461   0.434   0.426   0.422   0.387   0.386   0.402   0.411   0.403   0.449   0.467   0.453   0.478   0.504   0.520   0.509   0.543   0.543   0.564   0.559   0.540   0.502   0.486   0.490   0.481   0.496   0.521   0.529   0.521   0.573   0.546   0.513   0.512   0.510   0.514
    61.45    0.444   0.426   0.436   0.440   0.384   0.354   0.375   0.388   0.429   0.457   0.455   0.510   0.495   0.478   0.513   0.530   0.553   0.592   0.584   0.607   0.555   0.533   0.501   0.489   0.465   0.510   0.500   0.530   0.541   0.505   0.554   0.539   0.526   0.523   0.502
    56.80    0.426   0.428   0.414   0.423   0.376   0.343   0.369   0.400   0.428   0.453   0.477   0.473   0.474   0.470   0.482   0.519   0.514   0.560   0.579   0.565   0.514   0.538   0.540   0.532   0.484   0.520   0.523   0.536   0.540   0.514   0.519   0.523   0.491   0.466   0.472
    52.15    0.425   0.432   0.426   0.393   0.390   0.365   0.380   0.379   0.418   0.473   0.508   0.504   0.504   0.497   0.485   0.493   0.499   0.533   0.548   0.515   0.507   0.512   0.534   0.525   0.490   0.498   0.523   0.537   0.495   0.469   0.508   0.490   0.477   0.465   0.470
    47.50    0.438   0.417   0.394   0.393   0.396   0.387   0.400   0.406   0.433   0.493   0.483   0.511   0.490   0.470   0.485   0.513   0.514   0.530   0.530   0.514   0.504   0.531   0.477   0.493   0.526   0.500   0.518   0.517   0.484   0.473   0.488   0.500   0.500   0.469   0.448
    42.85    0.422   0.414   0.414   0.382   0.392   0.400   0.402   0.440   0.449   0.456   0.466   0.480   0.496   0.482   0.472   0.494   0.500   0.552   0.589   0.567   0.564   0.508   0.484   0.490   0.519   0.508   0.497   0.502   0.489   0.442   0.500   0.516   0.496   0.461   0.435
    38.20    0.432   0.425   0.429   0.399   0.383   0.370   0.387   0.412   0.405   0.421   0.431   0.452   0.447   0.488   0.498   0.466   0.498   0.528   0.554   0.554   0.564   0.553   0.534   0.496   0.494   0.542   0.530   0.502   0.493   0.476   0.501   0.482   0.479   0.468   0.423
    33.55    0.423   0.424   0.395   0.384   0.377   0.382   0.404   0.381   0.382   0.418   0.439   0.446   0.450   0.477   0.478   0.459   0.489   0.529   0.510   0.528   0.523   0.540   0.528   0.476   0.510   0.529   0.520   0.492   0.491   0.491   0.499   0.469   0.458   0.439   0.392
    28.90    0.408   0.405   0.362   0.368   0.383   0.372   0.371   0.371   0.400   0.437   0.443   0.467   0.458   0.471   0.499   0.497   0.474   0.517   0.486   0.490   0.486   0.512   0.501   0.470   0.474   0.489   0.476   0.470   0.494   0.515   0.476   0.474   0.460   0.432   0.385
    24.25    0.401   0.398   0.379   0.386   0.363   0.371   0.365   0.402   0.404   0.439   0.424   0.456   0.468   0.465   0.499   0.490   0.501   0.498   0.472   0.476   0.468   0.490   0.444   0.456   0.483   0.456   0.449   0.466   0.481   0.503   0.475   0.482   0.452   0.421   0.390
    19.60    0.414   0.384   0.384   0.372   0.365   0.364   0.372   0.405   0.425   0.467   0.462   0.484   0.485   0.521   0.502   0.475   0.472   0.493   0.483   0.502   0.514   0.443   0.440   0.438   0.455   0.455   0.480   0.472   0.464   0.488   0.497   0.464   0.456   0.453   0.413
    14.95    0.425   0.372   0.371   0.366   0.384   0.367   0.411   0.413   0.410   0.444   0.466   0.476   0.486   0.510   0.497   0.480   0.497   0.488   0.468   0.484   0.491   0.425   0.426   0.406   0.434   0.471   0.496   0.455   0.473   0.470   0.437   0.416   0.436   0.402   0.400
    10.30    0.424   0.368   0.386   0.381   0.373   0.378   0.414   0.410   0.410   0.416   0.423   0.447   0.495   0.511   0.533   0.516   0.520   0.504   0.511   0.481   0.459   0.424   0.413   0.435   0.412   0.448   0.452   0.470   0.452   0.438   0.402   0.426   0.415   0.404   0.376
     5.65    0.437   0.393   0.381   0.372   0.365   0.392   0.414   0.443   0.442   0.421   0.450   0.471   0.478   0.518   0.503   0.504   0.508   0.523   0.489   0.479   0.511   0.456   0.438   0.399   0.430   0.439   0.473   0.451   0.438   0.449   0.445   0.426   0.409   0.433   0.427
     1.00    0.437   0.421   0.401   0.410   0.409   0.432   0.437   0.461   0.445   0.444   0.465   0.461   0.497   0.480   0.466   0.467   0.493   0.499   0.513   0.496   0.513   0.492   0.452   0.427   0.405   0.419   0.431   0.427   0.449   0.466   0.458   0.438   0.445   0.432   0.398

   Height   Standard deviation at grid points for the v component:
   168.40    0.409   0.403   0.406   0.402   0.404   0.410   0.429   0.438   0.400   0.372   0.367   0.355   0.366   0.358   0.362   0.385   0.374   0.381   0.384   0.382   0.396   0.384   0.392   0.395   0.405   0.396   0.374   0.382   0.400   0.401   0.380   0.399   0.403   0.412   0.389
   163.75    0.422   0.407   0.399   0.405   0.407   0.398   0.411   0.402   0.411   0.377   0.374   0.369   0.359   0.372   0.384   0.372   0.363   0.362   0.370   0.381   0.399   0.376   0.367   0.383   0.369   0.375   0.376   0.374   0.385   0.384   0.388   0.397   0.413   0.403   0.393
   159.10    0.409   0.431   0.408   0.370   0.389   0.373   0.383   0.395   0.391   0.389   0.367   0.367   0.372   0.361   0.371   0.379   0.360   0.363   0.366   0.387   0.387   0.373   0.378   0.384   0.391   0.380   0.357   0.372   0.372   0.396   0.382   0.388   0.426   0.415   0.408
   154.45    0.402   0.404   0.388   0.416   0.406   0.372   0.353   0.386   0.373   0.366   0.359   0.340   0.375   0.388   0.363   0.383   0.377   0.362   0.340   0.364   0.364   0.360   0.375   0.376   0.395   0.400   0.373   0.398   0.398   0.401   0.404   0.386   0.408   0.382   0.396
   149.80    0.396   0.381   0.402   0.419   0.378   0.386   0.358   0.373   0.369   0.357   0.363   0.365   0.373   0.384   0.378   0.395   0.390   0.357   0.359   0.375   0.372   0.378   0.387   0.401   0.392   0.401   0.408   0.408   0.405   0.416   0.418   0.380   0.379   0.392   0.389
   145.15    0.415   0.409   0.395   0.389   0.358   0.366   0.366   0.376   0.376   0.363   0.371   0.388   0.382   0.369   0.369   0.381   0.386   0.397   0.393   0.382   0.374   0.390   0.395   0.390   0.378   0.399   0.409   0.406   0.430   0.426   0.411   0.392   0.390   0.384   0.404
   140.50    0.422   0.398   0.415   0.372   0.340   0.362   0.355   0.379   0.397   0.378   0.374   0.385   0.392   0.394   0.389   0.395   0.384   0.391   0.393   0.390   0.407   0.405   0.388   0.399   0.403   0.416   0.411   0.412   0.422   0.415   0.420   0.388   0.401   0.415   0.391
   135.85    0.412   0.430   0.406   0.383   0.364   0.370   0.351   0.381   0.390   0.386   0.386   0.372   0.380   0.404   0.411   0.402   0.402   0.409   0.393   0.428   0.416   0.416   0.419   0.407   0.410   0.425   0.410   0.414   0.421   0.428   0.427   0.415   0.405   0.409   0.414
   131.20    0.402   0.390   0.406   0.391   0.372   0.382   0.379   0.387   0.381   0.383   0.368   0.385   0.410   0.415   0.426   0.418   0.426   0.421   0.415   0.429   0.426   0.443   0.421   0.431   0.431   0.415   0.415   0.415   0.432   0.435   0.429   0.416   0.392   0.391   0.393
   126.55    0.387   0.419   0.404   0.401   0.390   0.379   0.379   0.373   0.372   0.388   0.407   0.376   0.400   0.437   0.423   0.423   0.418   0.423   0.429   0.414   0.420   0.439   0.414   0.431   0.419   0.407   0.419   0.443   0.442   0.418   0.424   0.416   0.407   0.381   0.371
   121.90    0.408   0.413   0.399   0.405   0.410   0.395   0.397   0.374   0.389   0.393   0.400   0.370   0.405   0.435   0.426   0.412   0.412   0.418   0.428   0.430   0.414   0.422   0.435   0.424   0.414   0.418   0.415   0.421   0.418   0.413   0.410   0.396   0.393   0.375   0.385
   117.25    0.422   0.412   0.399   0.383   0.397   0.399   0.396   0.389   0.381   0.376   0.376   0.415   0.423   0.442   0.449   0.435   0.432   0.421   0.428   0.433   0.421   0.434   0.417   0.423   0.425   0.427   0.429   0.416   0.415   0.399   0.391   0.389   0.381   0.371   0.389
   112.60    0.409   0.405   0.408   0.396   0.390   0.398   0.389   0.397   0.386   0.388   0.405   0.412   0.428   0.446   0.432   0.446   0.441   0.433   0.453   0.444   0.421   0.411   0.417   0.404   0.411   0.417   0.417   0.408   0.404   0.388   0.373   0.382   0.382   0.384   0.385
   107.95    0.443   0.429   0.420   0.416   0.402   0.410   0.416   0.396   0.408   0.409   0.410   0.448   0.455   0.434   0.438   0.432   0.429   0.410   0.422   0.418   0.412   0.399   0.400   0.389   0.396   0.396   0.413   0.408   0.406   0.385   0.385   0.376   0.373   0.382   0.377
   103.30    0.415   0.427   0.419   0.432   0.415   0.403   0.385   0.397   0.386   0.415   0.407   0.437   0.453   0.446   0.442   0.416   0.422   0.417   0.418   0.430   0.401   0.377   0.399   0.415   0.390   0.388   0.433   0.431   0.408   0.395   0.392   0.406   0.381   0.377   0.392
    98.65    0.412   0.413   0.424   0.437   0.409   0.395   0.399   0.410   0.397   0.404   0.408   0.443   0.443   0.457   0.448   0.432   0.427   0.420   0.421   0.420   0.396   0.398   0.407   0.408   0.391   0.398   0.412   0.399   0.402   0.413   0.421   0.415   0.399   0.398   0.394
    94.00    0.411   0.405   0.415   0.416   0.419   0.419   0.400   0.415   0.407   0.409   0.416   0.431   0.447   0.457   0.463   0.445   0.446   0.415   0.393   0.418   0.410   0.414   0.412   0.398   0.373   0.381   0.385   0.393   0.408   0.428   0.404   0.415   0.410   0.409   0.409
    89.35    0.429   0.420   0.413   0.415   0.409   0.415   0.402   0.427   0.429   0.421   0.413   0.414   0.450   0.463   0.467   0.442   0.440   0.417   0.419   0.410   0.410   0.394   0.410   0.413   0.383   0.368   0.377   0.399   0.379   0.418   0.419   0.413   0.406   0.397   0.404
    84.70    0.450   0.431   0.424   0.407   0.410   0.429   0.452   0.438   0.457   0.444   0.432   0.448   0.462   0.468   0.475   0.473   0.454   0.441   0.409   0.417   0.410   0.392   0.395   0.410   0.383   0.380   0.363   0.385   0.397   0.415   0.398   0.410   0.412   0.407   0.420
    80.05    0.442   0.444   0.440   0.429   0.426   0.434   0.446   0.455   0.465   0.477   0.458   0.444   0.439   0.444   0.463   0.449   0.458   0.434   0.404   0.417   0.421   0.425   0.415   0.416   0.407   0.389   0.379   0.371   0.386   0.406   0.392   0.410   0.395   0.418   0.420
    75.40    0.411   0.415   0.422   0.405   0.446   0.445   0.443   0.452   0.458   0.461   0.460   0.452   0.448   0.444   0.443   0.456   0.451   0.440   0.408   0.406   0.420   0.430   0.413   0.401   0.405   0.393   0.389   0.386   0.395   0.404   0.397   0.383   0.402   0.416   0.393
    70.75    0.430   0.416   0.421   0.402   0.448   0.448   0.431   0.416   0.421   0.437   0.454   0.457   0.453   0.456   0.441   0.444   0.429   0.441   0.432   0.408   0.407   0.424   0.414   0.405   0.404   0.385   0.387   0.387   0.411   0.435   0.404   0.404   0.385   0.388   0.390
    66.10    0.440   0.426   0.420   0.435   0.450   0.428   0.422   0.419   0.432   0.434   0.452   0.477   0.448   0.471   0.455   0.442   0.413   0.430   0.398   0.422   0.411   0.416   0.401   0.400   0.408   0.413   0.409   0.380   0.406   0.426   0.421   0.394   0.381   0.376   0.377
    61.45    0.435   0.413   0.411   0.422   0.425   0.422   0.422   0.407   0.425   0.438   0.444   0.456   0.467   0.445   0.465   0.447   0.428   0.422   0.413   0.429   0.434   0.437   0.439   0.406   0.433   0.409   0.397   0.404   0.400   0.428   0.408   0.382   0.370   0.361   0.359
    56.80    0.421   0.408   0.406   0.403   0.390   0.409   0.421   0.410   0.404   0.418   0.443   0.456   0.442   0.467   0.468   0.462   0.412   0.416   0.420   0.426   0.440   0.433   0.427   0.435   0.400   0.403   0.418   0.417   0.431   0.432   0.406   0.374   0.363   0.350   0.339
    52.15    0.409   0.405   0.382   0.387   0.395   0.401   0.391   0.399   0.401   0.404   0.450   0.468   0.469   0.466   0.475   0.452   0.434   0.431   0.447   0.449   0.436   0.426   0.421   0.407   0.421   0.428   0.444   0.441   0.432   0.434   0.409   0.381   0.366   0.359   0.348
    47.50    0.412   0.395   0.384   0.365   0.371   0.395   0.398   0.393   0.388   0.409   0.429   0.446   0.436   0.439   0.433   0.456   0.453   0.450   0.476   0.451   0.441   0.445   0.424   0.427   0.425   0.425   0.417   0.442   0.427   0.428   0.404   0.361   0.351   0.351   0.330
    42.85    0.403   0.393   0.383   0.374   0.374   0.368   0.359   0.382   0.386   0.396   0.424   0.435   0.434   0.444   0.419   0.431   0.457   0.464   0.460   0.458   0.445   0.428   0.423   0.431   0.424   0.419   0.427   0.443   0.417   0.424   0.382   0.334   0.351   0.353   0.336
    38.20    0.402   0.391   0.382   0.377   0.372   0.355   0.376   0.371   0.390   0.406   0.432   0.418   0.448   0.439   0.429   0.431   0.438   0.449   0.448   0.459   0.455   0.430   0.423   0.421   0.422   0.428   0.410   0.408   0.405   0.403   0.393   0.351   0.364   0.336   0.333
    33.55    0.407   0.398   0.395   0.404   0.382   0.371   0.366   0.380   0.383   0.396   0.405   0.412   0.405   0.422   0.415   0.418   0.440   0.458   0.454   0.447   0.436   0.441   0.414   0.430   0.407   0.404   0.392   0.404   0.376   0.399   0.376   0.369   0.351   0.347   0.330
    28.90    0.408   0.406   0.398   0.392   0.394   0.386   0.369   0.377   0.380   0.383   0.399   0.387   0.403   0.396   0.401   0.407   0.403   0.431   0.423   0.415   0.414   0.408   0.408   0.408   0.415   0.395   0.397   0.377   0.364   0.372   0.367   0.349   0.344   0.354   0.361
    24.25    0.454   0.427   0.415   0.400   0.392   0.381   0.361   0.367   0.384   0.393   0.402   0.417   0.416   0.408   0.416   0.402   0.402   0.410   0.402   0.404   0.404   0.417   0.392   0.404   0.398   0.390   0.381   0.375   0.378   0.366   0.378   0.368   0.354   0.356   0.376
    19.60    0.442   0.426   0.424   0.407   0.393   0.391   0.377   0.387   0.390   0.405   0.387   0.401   0.427   0.425   0.412   0.405   0.391   0.412   0.401   0.399   0.410   0.417   0.414   0.399   0.391   0.365   0.368   0.362   0.364   0.364   0.346   0.362   0.359   0.374   0.391
    14.95    0.442   0.426   0.405   0.403   0.377   0.390   0.392   0.385   0.403   0.394   0.384   0.392   0.388   0.415   0.415   0.411   0.406   0.397   0.410   0.443   0.417   0.415   0.398   0.379   0.396   0.380   0.383   0.385   0.366   0.368   0.359   0.393   0.369   0.381   0.412
    10.30    0.430   0.426   0.427   0.401   0.370   0.382   0.385   0.388   0.388   0.385   0.392   0.399   0.402   0.404   0.417   0.418   0.407   0.415   0.414   0.425   0.422   0.419   0.400   0.382   0.369   0.374   0.383   0.367   0.347   0.367   0.372   0.393   0.395   0.399   0.400
     5.65    0.422   0.438   0.430   0.402   0.397   0.407   0.396   0.399   0.394   0.367   0.374   0.406   0.414   0.418   0.398   0.410   0.432   0.435   0.430   0.408   0.415   0.418   0.414   0.391   0.384   0.380   0.387   0.362   0.363   0.363   0.383   0.373   0.380   0.392   0.426
     1.00    0.434   0.446   0.427   0.407   0.420   0.423   0.435   0.407   0.387   0.415   0.390   0.377   0.409   0.413   0.383   0.419   0.420   0.444   0.435   0.408   0.407   0.401   0.402   0.388   0.370   0.367   0.368   0.373   0.357   0.361   0.376   0.370   0.371   0.383   0.399

   Height   Standard deviation at grid points for the w component:
   168.40    0.215   0.221   0.223   0.225   0.229   0.225   0.226   0.221   0.218   0.213   0.222   0.217   0.213   0.213   0.210   0.211   0.214   0.216   0.207   0.210   0.213   0.218   0.212   0.215   0.212   0.211   0.213   0.209   0.218   0.211   0.203   0.203   0.206   0.204   0.207
   163.75    0.220   0.219   0.224   0.219   0.223   0.221   0.220   0.222   0.219   0.219   0.215   0.215   0.213   0.215   0.210   0.212   0.217   0.218   0.220   0.222   0.214   0.211   0.215   0.217   0.213   0.206   0.203   0.201   0.208   0.209   0.211   0.210   0.203   0.210   0.211
   159.10    0.225   0.231   0.221   0.220   0.216   0.219   0.219   0.218   0.218   0.216   0.214   0.217   0.209   0.212   0.215   0.213   0.212   0.223   0.223   0.219   0.218   0.213   0.219   0.215   0.217   0.213   0.213   0.211   0.212   0.214   0.214   0.217   0.202   0.202   0.204
   154.45    0.219   0.220   0.225   0.217   0.226   0.221   0.219   0.216   0.212   0.214   0.219   0.223   0.216   0.215   0.214   0.218   0.219   0.229   0.224   0.219   0.220   0.225   0.215   0.213   0.217   0.208   0.201   0.201   0.209   0.209   0.215   0.217   0.209   0.200   0.208
   149.80    0.224   0.225   0.229   0.224   0.220   0.228   0.218   0.217   0.224   0.226   0.221   0.214   0.220   0.220   0.219   0.222   0.223   0.223   0.221   0.215   0.222   0.226   0.219   0.214   0.209   0.208   0.202   0.201   0.199   0.207   0.213   0.207   0.200   0.203   0.209
   145.15    0.224   0.224   0.225   0.225   0.221   0.230   0.225   0.224   0.226   0.228   0.227   0.222   0.222   0.224   0.226   0.227   0.222   0.222   0.219   0.219   0.220   0.223   0.221   0.217   0.210   0.214   0.212   0.206   0.204   0.213   0.213   0.207   0.202   0.204   0.209
   140.50    0.221   0.223   0.220   0.224   0.228   0.225   0.226   0.227   0.228   0.229   0.226   0.228   0.227   0.226   0.225   0.221   0.219   0.225   0.218   0.219   0.214   0.218   0.213   0.216   0.216   0.215   0.208   0.206   0.207   0.205   0.215   0.214   0.206   0.205   0.210
   135.85    0.210   0.215   0.225   0.225   0.224   0.222   0.221   0.228   0.222   0.223   0.223   0.236   0.234   0.229   0.229   0.225   0.217   0.223   0.219   0.221   0.209   0.218   0.214   0.218   0.222   0.218   0.213   0.219   0.217   0.207   0.211   0.212   0.206   0.211   0.210
   131.20    0.215   0.220   0.232   0.226   0.231   0.228   0.221   0.229   0.221   0.228   0.230   0.232   0.228   0.229   0.227   0.224   0.222   0.219   0.220   0.224   0.218   0.216   0.223   0.227   0.226   0.216   0.223   0.223   0.217   0.219   0.216   0.210   0.216   0.216   0.212
   126.55    0.222   0.224   0.224   0.229   0.229   0.234   0.233   0.226   0.229   0.234   0.231   0.230   0.232   0.227   0.223   0.224   0.224   0.222   0.216   0.217   0.216   0.215   0.223   0.221   0.214   0.219   0.229   0.218   0.220   0.215   0.215   0.213   0.206   0.216   0.214
   121.90    0.218   0.218   0.221   0.228   0.236   0.231   0.231   0.227   0.226   0.231   0.227   0.222   0.235   0.234   0.227   0.226   0.226   0.231   0.226   0.219   0.217   0.215   0.216   0.222   0.211   0.216   0.223   0.225   0.212   0.213   0.221   0.214   0.219   0.223   0.217
   117.25    0.219   0.215   0.219   0.231   0.228   0.231   0.232   0.225   0.218   0.225   0.225   0.220   0.229   0.228   0.226   0.225   0.227   0.234   0.230   0.226   0.222   0.217   0.217   0.220   0.211   0.220   0.221   0.219   0.222   0.214   0.212   0.218   0.222   0.217   0.213
   112.60    0.221   0.222   0.228   0.227   0.227   0.231   0.226   0.223   0.226   0.216   0.223   0.228   0.228   0.220   0.224   0.223   0.225   0.226   0.233   0.226   0.226   0.222   0.219   0.218   0.217   0.216   0.214   0.216   0.213   0.218   0.211   0.219   0.222   0.224   0.219
   107.95    0.225   0.219   0.222   0.225   0.230   0.233   0.232   0.229   0.230   0.219   0.223   0.226   0.227   0.227   0.225   0.224   0.223   0.228   0.226   0.223   0.220   0.222   0.219   0.224   0.215   0.214   0.215   0.218   0.220   0.219   0.220   0.226   0.219   0.222   0.216
   103.30    0.232   0.226   0.224   0.219   0.223   0.234   0.228   0.230   0.226   0.224   0.223   0.225   0.230   0.229   0.224   0.227   0.227   0.223   0.222   0.223   0.216   0.216   0.224   0.224   0.214   0.213   0.216   0.225   0.225   0.223   0.224   0.220   0.228   0.226   0.222
    98.65    0.227   0.229   0.222   0.226   0.219   0.229   0.224   0.221   0.230   0.220   0.221   0.221   0.223   0.222   0.218   0.228   0.227   0.226   0.218   0.214   0.209   0.219   0.220   0.222   0.214   0.214   0.218   0.223   0.224   0.223   0.225   0.214   0.221   0.219   0.222
    94.00    0.231   0.223   0.215   0.223   0.225   0.223   0.229   0.230   0.228   0.224   0.220   0.219   0.222   0.224   0.219   0.224   0.221   0.225   0.214   0.218   0.215   0.212   0.215   0.223   0.223   0.215   0.216   0.221   0.219   0.221   0.229   0.226   0.228   0.217   0.216
    89.35    0.225   0.224   0.219   0.220   0.220   0.220   0.222   0.224   0.223   0.228   0.222   0.219   0.219   0.230   0.220   0.224   0.230   0.220   0.220   0.210   0.210   0.214   0.215   0.220   0.221   0.221   0.216   0.214   0.221   0.237   0.242   0.232   0.226   0.224   0.221
    84.70    0.224   0.225   0.224   0.227   0.224   0.219   0.217   0.229   0.231   0.223   0.225   0.216   0.216   0.226   0.232   0.224   0.230   0.226   0.218   0.220   0.217   0.215   0.218   0.213   0.215   0.215   0.224   0.215   0.224   0.233   0.231   0.232   0.228   0.223   0.228
    80.05    0.226   0.222   0.221   0.227   0.223   0.218   0.217   0.220   0.226   0.221   0.219   0.221   0.221   0.220   0.227   0.230   0.232   0.217   0.219   0.222   0.220   0.222   0.227   0.232   0.227   0.232   0.223   0.214   0.223   0.234   0.235   0.232   0.233   0.231   0.222
    75.40    0.226   0.226   0.225   0.222   0.219   0.216   0.222   0.213   0.223   0.222   0.230   0.220   0.221   0.218   0.229   0.226   0.220   0.215   0.219   0.221   0.220   0.223   0.226   0.222   0.230   0.222   0.219   0.226   0.224   0.219   0.230   0.234   0.231   0.215   0.221
    70.75    0.220   0.227   0.221   0.218   0.219   0.221   0.216   0.219   0.217   0.215   0.225   0.220   0.219   0.218   0.220   0.227   0.222   0.216   0.221   0.218   0.224   0.224   0.225   0.229   0.230   0.224   0.221   0.227   0.228   0.223   0.223   0.224   0.228   0.227   0.221
    66.10    0.224   0.227   0.224   0.223   0.216   0.214   0.218   0.218   0.226   0.221   0.225   0.225   0.214   0.218   0.225   0.222   0.220   0.218   0.225   0.222   0.224   0.233   0.237   0.232   0.224   0.227   0.234   0.228   0.231   0.226   0.228   0.234   0.226   0.225   0.220
    61.45    0.222   0.226   0.225   0.221   0.216   0.222   0.217   0.221   0.224   0.220   0.221   0.218   0.221   0.221   0.219   0.225   0.227   0.230   0.220   0.223   0.231   0.229   0.230   0.228   0.222   0.225   0.234   0.222   0.231   0.231   0.225   0.227   0.218   0.211   0.218
    56.80    0.225   0.226   0.220   0.215   0.215   0.226   0.216   0.220   0.222   0.218   0.216   0.212   0.227   0.219   0.218   0.217   0.225   0.233   0.224   0.220   0.226   0.229   0.221   0.223   0.224   0.228   0.223   0.221   0.225   0.232   0.225   0.221   0.225   0.222   0.221
    52.15    0.215   0.221   0.225   0.219   0.220   0.225   0.226   0.224   0.219   0.214   0.206   0.214   0.221   0.221   0.211   0.216   0.224   0.225   0.225   0.221   0.222   0.220   0.219   0.222   0.222   0.232   0.220   0.226   0.223   0.224   0.224   0.218   0.221   0.217   0.217
    47.50    0.221   0.220   0.221   0.222   0.223   0.223   0.230   0.218   0.218   0.218   0.214   0.217   0.215   0.213   0.212   0.214   0.218   0.218   0.221   0.224   0.222   0.216   0.214   0.221   0.222   0.221   0.226   0.223   0.221   0.220   0.222   0.210   0.214   0.217   0.217
    42.85    0.216   0.216   0.221   0.225   0.215   0.216   0.218   0.217   0.215   0.210   0.212   0.214   0.216   0.216   0.211   0.210   0.209   0.216   0.219   0.219   0.219   0.216   0.215   0.216   0.212   0.216   0.221   0.222   0.218   0.212   0.206   0.210   0.212   0.219   0.216
    38.20    0.222   0.219   0.226   0.216   0.214   0.216   0.213   0.212   0.213   0.210   0.215   0.216   0.220   0.217   0.222   0.217   0.218   0.219   0.213   0.214   0.225   0.217   0.222   0.220   0.217   0.220   0.221   0.224   0.216   0.208   0.211   0.210   0.212   0.217   0.215
    33.55    0.224   0.226   0.224   0.218   0.221   0.214   0.213   0.216   0.221   0.219   0.217   0.215   0.220   0.214   0.214   0.221   0.224   0.224   0.217   0.226   0.221   0.231   0.220   0.221   0.225   0.223   0.226   0.223   0.222   0.208   0.207   0.208   0.211   0.217   0.213
    28.90    0.233   0.215   0.224   0.221   0.222   0.219   0.220   0.224   0.225   0.212   0.218   0.219   0.217   0.215   0.215   0.217   0.222   0.227   0.221   0.216   0.222   0.224   0.220   0.217   0.222   0.229   0.229   0.226   0.224   0.215   0.217   0.200   0.208   0.211   0.206
    24.25    0.229   0.224   0.217   0.213   0.219   0.223   0.231   0.231   0.225   0.223   0.221   0.212   0.218   0.223   0.227   0.222   0.221   0.221   0.219   0.216   0.222   0.222   0.218   0.220   0.220   0.225   0.231   0.230   0.229   0.216   0.215   0.212   0.211   0.210   0.216
    19.60    0.218   0.222   0.217   0.220   0.217   0.220   0.222   0.226   0.219   0.219   0.215   0.218   0.218   0.220   0.217   0.220   0.216   0.224   0.219   0.221   0.227   0.230   0.226   0.224   0.220   0.226   0.228   0.226   0.230   0.221   0.226   0.216   0.208   0.214   0.218
    14.95    0.211   0.218   0.217   0.214   0.220   0.214   0.216   0.215   0.216   0.218   0.220   0.211   0.215   0.218   0.225   0.219   0.213   0.214   0.217   0.216   0.219   0.224   0.221   0.226   0.220   0.214   0.221   0.223   0.228   0.228   0.218   0.222   0.210   0.207   0.210
    10.30    0.217   0.219   0.217   0.211   0.223   0.221   0.223   0.219   0.215   0.218   0.228   0.220   0.217   0.214   0.220   0.228   0.218   0.217   0.210   0.215   0.223   0.225   0.222   0.224   0.225   0.216   0.215   0.220   0.221   0.222   0.219   0.216   0.210   0.219   0.215
     5.65    0.220   0.214   0.220   0.217   0.217   0.221   0.219   0.223   0.221   0.214   0.219   0.218   0.213   0.214   0.222   0.225   0.226   0.223   0.216   0.216   0.215   0.224   0.227   0.220   0.221   0.220   0.222   0.214   0.214   0.217   0.221   0.218   0.218   0.215   0.216
     1.00    0.218   0.219   0.217   0.221   0.220   0.223   0.222   0.220   0.218   0.223   0.221   0.221   0.215   0.216   0.223   0.225   0.228   0.227   0.224   0.222   0.229   0.226   0.226   0.223   0.221   0.224   0.219   0.216   0.217   0.214   0.220   0.220   0.215   0.222   0.222

   Mean standard deviation across all grid points:
      u component:    0.469 m/s
      v component:    0.405 m/s
      w component:    0.220 m/s


U-component (X) statistics from the interpolated hub point:

   Mean =   9.9913 m/s
   TI   =   5.0678 %


Processing complete.  5600.6 CPU seconds used.
