
This summary file was generated by TurbSim (from OpenFAST-v3.5.3) on 20-Apr-2025 at 11:25:14.


Runtime Options:

**********  Random seed #1
    RANLUX  Type of random number generator
         F  Output binary HH turbulence parameters?
         F  Output formatted turbulence parameters?
         F  Output AeroDyn HH files?
         T  Output AeroDyn FF files?
         F  Output BLADED FF files?
         F  Output tower data?
         F  Output HAWC FF files?
         F  Output formatted FF files?
         T  Output coherent turbulence time step file?
 0 -  NONE  IEC turbulence models scaled to exact specified standard deviation


Turbine/Model Specifications:

        37  Vertical grid-point matrix dimension
        35  Horizontal grid-point matrix dimension
     0.250  Time step [seconds]
   900.000  Analysis time [seconds]
   900.000  Usable output time [seconds]
    89.350  Hub height [m]
   167.400  Grid height [m]
   158.100  Grid width [m]
     0.000  Vertical flow angle [degrees]
     0.000  Horizontal flow angle [degrees]


Meteorological Boundary Conditions:

    TIMESR  User-input time series spectral model
       N/A  IEC standard
       N/A  IEC turbulence characteristic
       N/A  IEC turbulence type
       N/A  IEC Extreme Turbulence Model (ETM) "c" parameter [m/s]
       PL   Wind profile type
    90.000  Reference height [m]
    10.000  Reference wind speed [m/s]
       N/A  Jet height [m]
     0.120  Power law exponent
     0.030  Surface roughness length [m]


Non-IEC Meteorological Boundary Conditions:

    45.000  Site latitude [degrees]
     0.050  Gradient Richardson number
     0.480  Friction or shear velocity [m/s]
       N/A  Mixing layer depth [m]
       N/A  Mean hub u'w' Reynolds stress
       N/A  Mean hub u'v' Reynolds stress
       N/A  Mean hub v'w' Reynolds stress


Spatial Coherence Models:

       IEC  u-component coherence model
       IEC  v-component coherence model
       IEC  w-component coherence model
(   12.000, 0.353E-03)  u-component coherence parameters
(   12.000, 0.353E-03)  v-component coherence parameters
(   12.000, 0.353E-03)  w-component coherence parameters
       N/A  Coherence exponent


Coherent Turbulence Scaling Parameters:

.\EventData
            Name of the path containing the coherent turbulence data files
       dns  Type of coherent turbulence data files
     1.000  Disturbance scale (ratio of wave height to rotor diameter)
     0.500  Fractional location of tower centerline from right
     0.500  Fractional location of hub height from the bottom of the dataset
    30.000  Minimum start time for coherent structures [seconds]


Profiles from User-Defined Time-Series Input:

  Height   Wind Speed   Horizontal Angle   Vertical Angle
   (m)        (m/s)          (deg)              (deg)    
  ------   ----------   ----------------   --------------
   94.00      10.00          -0.63               -0.00


You have requested that the following file(s) be generated:

   /kfs3/scratch/agupta/Projects/RL_Incubator/FinalRuns_Veer/Seed4/./FFSim_Seed4/Cond00_v10.0_PL0.12_TI3.0/Case3_wdirp06/Seed_3/TurbSim/HighT7.bts (AeroDyn/TurbSim full-field wind file)


Turbulence Simulation Scaling Parameter Summary:

   Turbulence model used                            =  User-input time series
   Gradient Richardson number                       =    0.050
   Monin-Obukhov (M-O) z/L parameter                =    0.067
   Monin-Obukhov (M-O) length scale                 = 1340.250 m
   Mean wind speed at hub height                    =    9.991 m/s

   Wind profile type                                =  Power law
   Power law exponent                               =    0.120
   Mean shear across rotor disk                     =    0.019 (m/s)/m
   Assumed rotor diameter                           =  158.100 m
   Surface roughness length                         =    0.030 m

   Nyquist frequency of turbulent wind field        =    2.000 Hz

   Number of time steps in the FFT                  =     3600
   Number of time steps output                      =     3600
   Number of points simulated                       =     1296


Mean Flow Angles:

   Vertical   =   0.0 degrees
   Horizontal =   0.0 degrees

Mean Wind Speed Profile:

   Height    Wind Speed   Horizontal Angle  Vertical Angle  U-comp (X)   V-comp (Y)   W-comp (Z)
     (m)        (m/s)         (degrees)       (degrees)       (m/s)        (m/s)        (m/s)   
   ------    ----------   ----------------  --------------  ----------   ----------   ----------
    168.4       10.78            0.00            0.00         10.78         0.00         0.00
    163.7       10.74            0.00            0.00         10.74         0.00         0.00
    159.1       10.71            0.00            0.00         10.71         0.00         0.00
    154.4       10.67            0.00            0.00         10.67         0.00         0.00
    149.8       10.63            0.00            0.00         10.63         0.00         0.00
    145.1       10.59            0.00            0.00         10.59         0.00         0.00
    140.5       10.55            0.00            0.00         10.55         0.00         0.00
    135.8       10.51            0.00            0.00         10.51         0.00         0.00
    131.2       10.46            0.00            0.00         10.46         0.00         0.00
    126.5       10.42            0.00            0.00         10.42         0.00         0.00
    121.9       10.37            0.00            0.00         10.37         0.00         0.00
    117.2       10.32            0.00            0.00         10.32         0.00         0.00
    112.6       10.27            0.00            0.00         10.27         0.00         0.00
    107.9       10.22            0.00            0.00         10.22         0.00         0.00
    103.3       10.17            0.00            0.00         10.17         0.00         0.00
     98.6       10.11            0.00            0.00         10.11         0.00         0.00
     94.0       10.05            0.00            0.00         10.05         0.00         0.00
     89.3        9.99            0.00            0.00          9.99         0.00         0.00
     84.7        9.93            0.00            0.00          9.93         0.00         0.00
     80.0        9.86            0.00            0.00          9.86         0.00         0.00
     75.4        9.79            0.00            0.00          9.79         0.00         0.00
     70.7        9.72            0.00            0.00          9.72         0.00         0.00
     66.1        9.64            0.00            0.00          9.64         0.00         0.00
     61.4        9.55            0.00            0.00          9.55         0.00         0.00
     56.8        9.46            0.00            0.00          9.46         0.00         0.00
     52.1        9.37            0.00            0.00          9.37         0.00         0.00
     47.5        9.26            0.00            0.00          9.26         0.00         0.00
     42.8        9.15            0.00            0.00          9.15         0.00         0.00
     38.2        9.02            0.00            0.00          9.02         0.00         0.00
     33.5        8.88            0.00            0.00          8.88         0.00         0.00
     28.9        8.73            0.00            0.00          8.73         0.00         0.00
     24.2        8.54            0.00            0.00          8.54         0.00         0.00
     19.6        8.33            0.00            0.00          8.33         0.00         0.00
     14.9        8.06            0.00            0.00          8.06         0.00         0.00
     10.3        7.71            0.00            0.00          7.71         0.00         0.00
      5.6        7.17            0.00            0.00          7.17         0.00         0.00
      1.0        5.83            0.00            0.00          5.83         0.00         0.00


Harvested Random Seeds after Generation of the Random Numbers:

     65026800 K 1
            0 K 2


Hub-Height Simulated Turbulence Statistical Summary:

   Type of Wind        Min (m/s)   Mean (m/s)    Max (m/s)  Sigma (m/s)       TI (%)
   ----------------    ---------   ----------    ---------  -----------       ------
   Longitudinal (u)         8.88         9.99        10.81        0.276        2.761
   Lateral (v)             -0.69        -0.00         0.77        0.224        2.240
   Vertical (w)            -0.48        -0.00         0.51        0.143        1.429
   U component              8.88         9.99        10.81        0.276        2.761
   V component             -0.69        -0.00         0.77        0.224        2.240
   W component             -0.48        -0.00         0.51        0.143        1.429
   Horizontal (U&V)         8.88         9.99        10.81        0.276        2.757
   Total                    8.88         9.99        10.81        0.276        2.757

                       Min Reynolds     Mean Reynolds    Max Reynolds    Correlation
   Product             Stress (m/s)^2   Stress (m/s)^2   Stress (m/s)^2  Coefficient
   ----------------    --------------   --------------   --------------  -----------
   u'w'                     -0.204             0.002             0.235         0.052
   u'v'                     -0.263             0.006             0.420         0.102
   v'w'                     -0.166             0.001             0.213         0.026


   Friction Velocity (Ustar)  =      0.045 m/s
   Maximum Instantaneous TKE  =      0.640 (m/s)^2
   Maximum Instantaneous CTKE =      0.213 (m/s)^2


Grid Point Variance Summary:

   Y-coord  -79.05  -74.40  -69.75  -65.10  -60.45  -55.80  -51.15  -46.50  -41.85  -37.20  -32.55  -27.90  -23.25  -18.60  -13.95   -9.30   -4.65    0.00    4.65    9.30   13.95   18.60   23.25   27.90   32.55   37.20   41.85   46.50   51.15   55.80   60.45   65.10   69.75   74.40   79.05

   Height   Standard deviation at grid points for the u component:
   168.40    0.287   0.286   0.281   0.310   0.306   0.324   0.336   0.332   0.313   0.305   0.314   0.312   0.290   0.292   0.283   0.268   0.274   0.280   0.263   0.264   0.261   0.270   0.278   0.293   0.283   0.301   0.309   0.308   0.304   0.310   0.316   0.315   0.332   0.326   0.349
   163.75    0.292   0.292   0.297   0.303   0.300   0.325   0.324   0.313   0.297   0.311   0.302   0.295   0.289   0.278   0.260   0.267   0.275   0.275   0.263   0.249   0.274   0.281   0.297   0.279   0.296   0.306   0.303   0.297   0.297   0.325   0.328   0.322   0.328   0.325   0.335
   159.10    0.300   0.279   0.276   0.289   0.292   0.319   0.317   0.299   0.305   0.312   0.302   0.291   0.307   0.284   0.279   0.282   0.267   0.274   0.251   0.266   0.278   0.277   0.303   0.301   0.292   0.309   0.313   0.302   0.299   0.305   0.317   0.329   0.318   0.326   0.313
   154.45    0.286   0.281   0.272   0.306   0.308   0.318   0.315   0.313   0.293   0.303   0.302   0.292   0.302   0.304   0.285   0.269   0.268   0.268   0.262   0.270   0.286   0.290   0.307   0.304   0.298   0.299   0.308   0.303   0.301   0.304   0.332   0.333   0.307   0.313   0.304
   149.80    0.282   0.288   0.265   0.283   0.303   0.292   0.308   0.294   0.274   0.285   0.301   0.276   0.290   0.286   0.298   0.272   0.270   0.264   0.282   0.275   0.289   0.297   0.308   0.296   0.280   0.288   0.299   0.311   0.302   0.323   0.342   0.329   0.306   0.308   0.305
   145.15    0.308   0.286   0.288   0.276   0.307   0.317   0.314   0.312   0.299   0.289   0.296   0.281   0.290   0.286   0.287   0.278   0.270   0.276   0.273   0.275   0.287   0.295   0.307   0.295   0.290   0.298   0.298   0.308   0.294   0.327   0.333   0.335   0.313   0.319   0.301
   140.50    0.327   0.310   0.317   0.299   0.307   0.307   0.317   0.315   0.300   0.287   0.290   0.272   0.286   0.280   0.276   0.264   0.264   0.276   0.282   0.283   0.292   0.289   0.311   0.292   0.294   0.311   0.303   0.288   0.292   0.328   0.310   0.313   0.331   0.316   0.298
   135.85    0.351   0.325   0.321   0.324   0.300   0.297   0.309   0.297   0.276   0.280   0.277   0.273   0.288   0.278   0.259   0.251   0.279   0.283   0.289   0.290   0.294   0.311   0.297   0.291   0.305   0.318   0.331   0.313   0.312   0.331   0.351   0.334   0.352   0.328   0.312
   131.20    0.355   0.325   0.328   0.305   0.304   0.301   0.291   0.298   0.292   0.274   0.264   0.287   0.277   0.273   0.270   0.273   0.265   0.273   0.288   0.293   0.281   0.302   0.312   0.313   0.317   0.346   0.338   0.334   0.321   0.335   0.342   0.327   0.327   0.318   0.316
   126.55    0.346   0.313   0.328   0.309   0.292   0.312   0.307   0.297   0.309   0.275   0.265   0.290   0.291   0.302   0.286   0.275   0.267   0.255   0.276   0.303   0.297   0.298   0.317   0.324   0.335   0.353   0.355   0.320   0.331   0.338   0.313   0.319   0.309   0.300   0.320
   121.90    0.331   0.337   0.346   0.325   0.327   0.316   0.310   0.310   0.314   0.291   0.277   0.293   0.287   0.295   0.297   0.255   0.256   0.253   0.276   0.287   0.299   0.314   0.316   0.302   0.332   0.340   0.344   0.336   0.326   0.307   0.305   0.324   0.319   0.313   0.314
   117.25    0.352   0.358   0.342   0.351   0.331   0.316   0.334   0.317   0.326   0.306   0.290   0.267   0.299   0.276   0.275   0.274   0.264   0.251   0.256   0.280   0.292   0.289   0.309   0.314   0.330   0.349   0.326   0.344   0.341   0.326   0.329   0.333   0.330   0.297   0.291
   112.60    0.357   0.351   0.342   0.352   0.351   0.315   0.334   0.323   0.327   0.314   0.295   0.278   0.285   0.296   0.286   0.279   0.286   0.271   0.260   0.275   0.271   0.273   0.293   0.307   0.325   0.332   0.322   0.316   0.310   0.332   0.342   0.339   0.325   0.297   0.297
   107.95    0.340   0.342   0.337   0.341   0.343   0.335   0.318   0.317   0.313   0.318   0.295   0.282   0.289   0.277   0.279   0.274   0.287   0.268   0.286   0.279   0.272   0.275   0.301   0.317   0.322   0.329   0.326   0.320   0.336   0.328   0.335   0.324   0.309   0.294   0.282
   103.30    0.325   0.328   0.305   0.330   0.329   0.320   0.308   0.310   0.309   0.295   0.279   0.289   0.284   0.273   0.260   0.258   0.258   0.262   0.290   0.299   0.296   0.286   0.283   0.299   0.314   0.309   0.319   0.318   0.316   0.318   0.308   0.315   0.298   0.288   0.291
    98.65    0.340   0.331   0.326   0.330   0.310   0.301   0.299   0.297   0.313   0.311   0.298   0.303   0.302   0.261   0.258   0.271   0.262   0.279   0.281   0.284   0.283   0.274   0.281   0.284   0.301   0.313   0.308   0.304   0.302   0.302   0.290   0.303   0.315   0.293   0.305
    94.00    0.340   0.337   0.349   0.341   0.336   0.310   0.337   0.336   0.325   0.319   0.282   0.307   0.284   0.263   0.255   0.271   0.276   0.290   0.286   0.299   0.281   0.303   0.280   0.274   0.295   0.304   0.311   0.322   0.316   0.293   0.290   0.272   0.292   0.310   0.300
    89.35    0.340   0.335   0.346   0.333   0.338   0.339   0.363   0.348   0.344   0.319   0.291   0.296   0.275   0.264   0.270   0.270   0.262   0.276   0.297   0.291   0.302   0.311   0.289   0.286   0.300   0.287   0.289   0.303   0.290   0.305   0.291   0.276   0.280   0.299   0.312
    84.70    0.335   0.331   0.324   0.330   0.318   0.342   0.364   0.361   0.333   0.316   0.298   0.279   0.298   0.288   0.271   0.283   0.261   0.281   0.298   0.304   0.307   0.311   0.302   0.287   0.290   0.295   0.311   0.306   0.277   0.299   0.290   0.284   0.293   0.299   0.304
    80.05    0.332   0.325   0.324   0.334   0.328   0.331   0.337   0.337   0.336   0.300   0.297   0.281   0.294   0.308   0.301   0.277   0.274   0.294   0.311   0.293   0.307   0.307   0.298   0.315   0.306   0.300   0.321   0.293   0.275   0.302   0.307   0.303   0.301   0.301   0.288
    75.40    0.337   0.328   0.334   0.337   0.326   0.323   0.335   0.317   0.327   0.310   0.309   0.288   0.292   0.301   0.301   0.282   0.284   0.302   0.326   0.314   0.308   0.306   0.316   0.297   0.303   0.317   0.304   0.309   0.277   0.288   0.308   0.300   0.320   0.307   0.287
    70.75    0.310   0.311   0.326   0.345   0.351   0.314   0.317   0.292   0.313   0.313   0.297   0.280   0.300   0.320   0.306   0.275   0.266   0.288   0.315   0.319   0.318   0.321   0.338   0.311   0.315   0.309   0.307   0.277   0.279   0.285   0.297   0.309   0.319   0.298   0.304
    66.10    0.303   0.302   0.330   0.331   0.336   0.322   0.325   0.317   0.319   0.287   0.287   0.283   0.288   0.302   0.301   0.294   0.279   0.293   0.323   0.344   0.355   0.338   0.339   0.333   0.319   0.322   0.307   0.283   0.290   0.296   0.280   0.309   0.328   0.315   0.291
    61.45    0.305   0.309   0.335   0.332   0.332   0.339   0.316   0.304   0.291   0.299   0.285   0.271   0.286   0.304   0.315   0.304   0.292   0.312   0.332   0.345   0.336   0.333   0.332   0.342   0.317   0.324   0.314   0.311   0.285   0.286   0.289   0.307   0.330   0.300   0.272
    56.80    0.330   0.306   0.336   0.360   0.339   0.341   0.313   0.299   0.320   0.285   0.284   0.279   0.276   0.276   0.297   0.306   0.299   0.301   0.301   0.328   0.339   0.369   0.350   0.352   0.330   0.321   0.331   0.314   0.315   0.284   0.278   0.316   0.324   0.304   0.293
    52.15    0.331   0.320   0.331   0.346   0.340   0.345   0.316   0.316   0.311   0.303   0.289   0.262   0.273   0.270   0.270   0.284   0.299   0.300   0.316   0.339   0.349   0.364   0.347   0.337   0.308   0.323   0.311   0.310   0.294   0.304   0.296   0.308   0.311   0.297   0.294
    47.50    0.332   0.311   0.317   0.329   0.325   0.323   0.332   0.317   0.325   0.299   0.285   0.285   0.264   0.263   0.251   0.260   0.284   0.299   0.328   0.327   0.330   0.344   0.332   0.312   0.305   0.306   0.296   0.293   0.282   0.292   0.306   0.309   0.299   0.312   0.306
    42.85    0.351   0.332   0.350   0.347   0.336   0.315   0.324   0.328   0.318   0.301   0.301   0.298   0.272   0.262   0.277   0.277   0.297   0.304   0.318   0.325   0.319   0.318   0.310   0.317   0.298   0.296   0.284   0.297   0.302   0.297   0.294   0.285   0.295   0.296   0.289
    38.20    0.344   0.338   0.350   0.335   0.341   0.350   0.344   0.320   0.324   0.319   0.306   0.290   0.289   0.281   0.286   0.283   0.311   0.309   0.326   0.302   0.315   0.311   0.298   0.311   0.316   0.295   0.299   0.307   0.311   0.296   0.296   0.280   0.294   0.299   0.271
    33.55    0.349   0.347   0.341   0.330   0.344   0.337   0.355   0.332   0.313   0.336   0.322   0.311   0.312   0.293   0.300   0.296   0.325   0.327   0.326   0.323   0.323   0.314   0.305   0.312   0.301   0.307   0.315   0.297   0.315   0.313   0.303   0.288   0.304   0.299   0.297
    28.90    0.338   0.323   0.321   0.329   0.333   0.330   0.340   0.339   0.323   0.334   0.311   0.291   0.300   0.313   0.297   0.303   0.319   0.313   0.330   0.322   0.289   0.309   0.319   0.318   0.313   0.318   0.322   0.312   0.329   0.310   0.296   0.307   0.292   0.290   0.297
    24.25    0.351   0.332   0.323   0.312   0.355   0.315   0.313   0.331   0.332   0.339   0.321   0.317   0.292   0.301   0.294   0.308   0.299   0.326   0.342   0.332   0.308   0.315   0.325   0.329   0.326   0.334   0.331   0.340   0.327   0.305   0.292   0.294   0.284   0.294   0.290
    19.60    0.333   0.313   0.328   0.342   0.334   0.322   0.324   0.319   0.335   0.343   0.342   0.329   0.300   0.284   0.305   0.306   0.302   0.326   0.333   0.319   0.325   0.337   0.334   0.335   0.340   0.354   0.347   0.338   0.329   0.299   0.288   0.299   0.290   0.290   0.314
    14.95    0.330   0.316   0.325   0.310   0.309   0.334   0.315   0.324   0.326   0.340   0.355   0.341   0.333   0.293   0.303   0.287   0.287   0.308   0.311   0.306   0.332   0.346   0.342   0.313   0.327   0.341   0.354   0.345   0.350   0.318   0.303   0.300   0.301   0.301   0.305
    10.30    0.328   0.302   0.304   0.303   0.327   0.323   0.326   0.313   0.318   0.317   0.343   0.324   0.309   0.287   0.292   0.281   0.292   0.295   0.294   0.312   0.332   0.340   0.314   0.321   0.321   0.341   0.342   0.350   0.345   0.335   0.312   0.293   0.284   0.307   0.314
     5.65    0.325   0.297   0.280   0.293   0.304   0.298   0.293   0.295   0.301   0.311   0.318   0.311   0.304   0.286   0.280   0.277   0.273   0.291   0.305   0.309   0.308   0.330   0.312   0.310   0.338   0.332   0.336   0.342   0.331   0.317   0.303   0.281   0.281   0.298   0.316
     1.00    0.303   0.307   0.280   0.288   0.280   0.293   0.279   0.283   0.283   0.286   0.298   0.306   0.299   0.295   0.257   0.262   0.273   0.274   0.287   0.282   0.296   0.311   0.297   0.312   0.333   0.320   0.328   0.315   0.302   0.286   0.300   0.287   0.292   0.286   0.286

   Height   Standard deviation at grid points for the v component:
   168.40    0.218   0.227   0.220   0.215   0.213   0.226   0.231   0.236   0.237   0.257   0.247   0.259   0.268   0.259   0.260   0.254   0.244   0.239   0.251   0.254   0.257   0.258   0.258   0.242   0.231   0.231   0.238   0.254   0.258   0.263   0.250   0.251   0.244   0.248   0.239
   163.75    0.238   0.221   0.224   0.223   0.224   0.236   0.240   0.250   0.249   0.251   0.245   0.259   0.262   0.259   0.260   0.258   0.250   0.243   0.264   0.267   0.274   0.269   0.243   0.233   0.235   0.244   0.254   0.265   0.265   0.268   0.252   0.241   0.231   0.242   0.249
   159.10    0.229   0.226   0.230   0.226   0.231   0.243   0.252   0.250   0.252   0.245   0.261   0.259   0.259   0.251   0.254   0.250   0.270   0.256   0.262   0.277   0.275   0.257   0.254   0.256   0.244   0.243   0.254   0.268   0.272   0.273   0.253   0.236   0.237   0.238   0.238
   154.45    0.241   0.237   0.232   0.233   0.233   0.235   0.244   0.249   0.250   0.262   0.255   0.248   0.254   0.263   0.266   0.265   0.275   0.265   0.279   0.280   0.270   0.268   0.251   0.251   0.242   0.253   0.250   0.265   0.264   0.265   0.247   0.244   0.236   0.231   0.233
   149.80    0.248   0.237   0.228   0.232   0.235   0.254   0.247   0.250   0.255   0.262   0.268   0.269   0.263   0.259   0.264   0.270   0.288   0.288   0.276   0.288   0.283   0.275   0.270   0.254   0.254   0.261   0.250   0.252   0.258   0.254   0.241   0.224   0.224   0.241   0.234
   145.15    0.260   0.240   0.234   0.234   0.256   0.248   0.243   0.258   0.264   0.253   0.264   0.273   0.264   0.279   0.269   0.283   0.299   0.289   0.295   0.289   0.289   0.272   0.280   0.261   0.252   0.253   0.260   0.258   0.254   0.240   0.229   0.235   0.218   0.232   0.227
   140.50    0.273   0.250   0.258   0.251   0.249   0.244   0.262   0.248   0.260   0.274   0.269   0.268   0.262   0.266   0.268   0.278   0.285   0.291   0.280   0.288   0.284   0.275   0.277   0.254   0.258   0.251   0.267   0.259   0.246   0.235   0.232   0.236   0.205   0.228   0.215
   135.85    0.264   0.275   0.281   0.256   0.256   0.242   0.261   0.249   0.252   0.264   0.262   0.270   0.258   0.259   0.258   0.257   0.269   0.271   0.269   0.287   0.280   0.288   0.276   0.252   0.258   0.259   0.253   0.249   0.239   0.222   0.230   0.223   0.209   0.209   0.203
   131.20    0.256   0.265   0.262   0.271   0.254   0.246   0.260   0.256   0.242   0.252   0.263   0.263   0.269   0.257   0.258   0.249   0.250   0.257   0.270   0.276   0.281   0.281   0.272   0.251   0.249   0.245   0.247   0.235   0.219   0.216   0.219   0.212   0.213   0.200   0.199
   126.55    0.267   0.262   0.269   0.272   0.260   0.233   0.244   0.235   0.247   0.241   0.246   0.263   0.252   0.245   0.259   0.247   0.247   0.265   0.261   0.270   0.270   0.264   0.258   0.262   0.255   0.244   0.243   0.228   0.221   0.222   0.215   0.202   0.206   0.198   0.201
   121.90    0.285   0.257   0.262   0.247   0.251   0.247   0.239   0.233   0.235   0.235   0.246   0.244   0.236   0.251   0.253   0.244   0.265   0.273   0.272   0.258   0.257   0.262   0.244   0.255   0.251   0.239   0.219   0.219   0.228   0.227   0.208   0.208   0.209   0.197   0.201
   117.25    0.264   0.261   0.254   0.243   0.249   0.242   0.236   0.241   0.243   0.241   0.241   0.240   0.232   0.245   0.251   0.253   0.251   0.262   0.254   0.251   0.250   0.250   0.240   0.251   0.245   0.229   0.226   0.217   0.218   0.225   0.221   0.212   0.208   0.195   0.188
   112.60    0.260   0.252   0.253   0.255   0.240   0.222   0.235   0.230   0.241   0.246   0.232   0.223   0.229   0.246   0.258   0.253   0.249   0.255   0.245   0.237   0.238   0.240   0.232   0.230   0.229   0.229   0.223   0.223   0.221   0.223   0.218   0.207   0.195   0.191   0.181
   107.95    0.264   0.262   0.259   0.258   0.250   0.238   0.235   0.237   0.229   0.247   0.243   0.237   0.240   0.245   0.247   0.256   0.235   0.247   0.249   0.234   0.232   0.244   0.235   0.225   0.221   0.223   0.217   0.217   0.220   0.225   0.210   0.208   0.201   0.196   0.197
   103.30    0.261   0.262   0.252   0.255   0.255   0.249   0.244   0.256   0.231   0.246   0.248   0.247   0.255   0.250   0.235   0.243   0.244   0.239   0.246   0.243   0.244   0.240   0.232   0.236   0.220   0.204   0.211   0.210   0.216   0.207   0.215   0.218   0.207   0.204   0.196
    98.65    0.274   0.269   0.249   0.244   0.236   0.246   0.237   0.249   0.241   0.246   0.251   0.257   0.249   0.245   0.245   0.243   0.237   0.226   0.232   0.239   0.243   0.230   0.232   0.224   0.229   0.224   0.207   0.217   0.216   0.207   0.206   0.213   0.218   0.211   0.209
    94.00    0.256   0.246   0.244   0.230   0.237   0.236   0.247   0.240   0.243   0.241   0.246   0.257   0.253   0.241   0.238   0.233   0.236   0.228   0.226   0.235   0.229   0.220   0.227   0.225   0.225   0.240   0.226   0.228   0.230   0.220   0.221   0.217   0.222   0.218   0.229
    89.35    0.236   0.227   0.219   0.216   0.233   0.231   0.237   0.224   0.227   0.227   0.233   0.242   0.245   0.254   0.239   0.223   0.227   0.224   0.221   0.224   0.237   0.228   0.221   0.230   0.230   0.237   0.236   0.236   0.222   0.220   0.225   0.216   0.222   0.217   0.218
    84.70    0.215   0.211   0.213   0.206   0.218   0.225   0.224   0.232   0.234   0.217   0.229   0.228   0.238   0.251   0.232   0.226   0.218   0.218   0.218   0.234   0.237   0.224   0.225   0.223   0.235   0.235   0.228   0.232   0.218   0.219   0.219   0.231   0.223   0.204   0.225
    80.05    0.209   0.201   0.202   0.201   0.213   0.210   0.223   0.217   0.220   0.221   0.223   0.226   0.229   0.237   0.235   0.231   0.213   0.213   0.220   0.224   0.231   0.232   0.217   0.224   0.227   0.243   0.230   0.231   0.222   0.218   0.226   0.234   0.220   0.226   0.230
    75.40    0.198   0.198   0.195   0.203   0.208   0.209   0.215   0.213   0.213   0.219   0.229   0.223   0.229   0.227   0.227   0.224   0.214   0.202   0.215   0.222   0.213   0.223   0.214   0.225   0.233   0.238   0.233   0.222   0.227   0.227   0.225   0.222   0.217   0.214   0.222
    70.75    0.197   0.198   0.188   0.190   0.195   0.197   0.194   0.207   0.210   0.211   0.204   0.218   0.225   0.226   0.216   0.212   0.203   0.204   0.211   0.212   0.222   0.222   0.222   0.219   0.222   0.222   0.232   0.223   0.231   0.231   0.227   0.223   0.223   0.222   0.226
    66.10    0.197   0.199   0.205   0.196   0.189   0.190   0.199   0.201   0.213   0.206   0.203   0.208   0.226   0.219   0.212   0.210   0.210   0.204   0.203   0.201   0.212   0.226   0.218   0.228   0.218   0.224   0.218   0.227   0.226   0.225   0.210   0.211   0.209   0.204   0.225
    61.45    0.198   0.203   0.203   0.208   0.193   0.189   0.202   0.204   0.205   0.201   0.208   0.218   0.219   0.210   0.222   0.215   0.207   0.212   0.209   0.207   0.210   0.210   0.224   0.223   0.205   0.221   0.219   0.230   0.231   0.222   0.219   0.209   0.206   0.214   0.226
    56.80    0.206   0.210   0.208   0.205   0.205   0.204   0.203   0.212   0.211   0.200   0.200   0.221   0.212   0.212   0.223   0.202   0.212   0.215   0.204   0.201   0.218   0.219   0.216   0.218   0.219   0.222   0.216   0.224   0.207   0.215   0.213   0.207   0.219   0.222   0.228
    52.15    0.211   0.218   0.214   0.207   0.214   0.207   0.204   0.203   0.209   0.210   0.215   0.205   0.214   0.210   0.209   0.209   0.198   0.204   0.214   0.203   0.215   0.208   0.204   0.214   0.220   0.218   0.221   0.220   0.206   0.196   0.205   0.217   0.214   0.217   0.217
    47.50    0.224   0.218   0.212   0.216   0.213   0.209   0.207   0.203   0.210   0.212   0.221   0.220   0.227   0.217   0.200   0.204   0.204   0.206   0.204   0.201   0.202   0.205   0.201   0.208   0.211   0.210   0.223   0.212   0.205   0.202   0.211   0.207   0.204   0.217   0.213
    42.85    0.218   0.225   0.215   0.220   0.208   0.208   0.202   0.205   0.211   0.211   0.215   0.215   0.222   0.207   0.206   0.205   0.220   0.208   0.209   0.204   0.207   0.211   0.213   0.206   0.201   0.213   0.226   0.217   0.214   0.206   0.204   0.201   0.199   0.211   0.208
    38.20    0.217   0.226   0.207   0.219   0.206   0.209   0.206   0.205   0.210   0.210   0.208   0.206   0.216   0.210   0.217   0.210   0.210   0.211   0.211   0.203   0.206   0.208   0.209   0.200   0.191   0.200   0.205   0.212   0.206   0.203   0.209   0.207   0.208   0.215   0.222
    33.55    0.214   0.215   0.220   0.225   0.219   0.208   0.218   0.210   0.217   0.221   0.215   0.213   0.222   0.226   0.212   0.210   0.217   0.217   0.214   0.208   0.209   0.204   0.210   0.199   0.187   0.191   0.211   0.201   0.203   0.208   0.216   0.229   0.220   0.225   0.221
    28.90    0.211   0.217   0.220   0.223   0.223   0.218   0.210   0.218   0.210   0.219   0.215   0.216   0.222   0.224   0.218   0.221   0.219   0.223   0.214   0.209   0.211   0.206   0.212   0.211   0.195   0.190   0.202   0.216   0.196   0.208   0.211   0.221   0.225   0.225   0.229
    24.25    0.199   0.208   0.212   0.223   0.229   0.233   0.220   0.222   0.220   0.217   0.212   0.208   0.212   0.222   0.207   0.217   0.223   0.219   0.216   0.213   0.208   0.207   0.213   0.221   0.203   0.208   0.205   0.206   0.203   0.212   0.214   0.220   0.221   0.217   0.230
    19.60    0.202   0.211   0.211   0.207   0.226   0.223   0.231   0.217   0.223   0.208   0.215   0.212   0.215   0.214   0.220   0.210   0.220   0.217   0.214   0.210   0.212   0.200   0.205   0.203   0.204   0.199   0.211   0.208   0.213   0.216   0.219   0.219   0.211   0.214   0.221
    14.95    0.204   0.216   0.204   0.221   0.222   0.227   0.234   0.229   0.229   0.217   0.218   0.220   0.219   0.214   0.209   0.210   0.218   0.215   0.203   0.200   0.210   0.198   0.186   0.188   0.186   0.196   0.188   0.203   0.208   0.205   0.212   0.208   0.200   0.207   0.222
    10.30    0.202   0.212   0.218   0.229   0.231   0.230   0.241   0.230   0.228   0.221   0.214   0.213   0.217   0.215   0.205   0.205   0.218   0.204   0.193   0.202   0.211   0.198   0.182   0.183   0.194   0.186   0.184   0.208   0.206   0.198   0.197   0.204   0.220   0.210   0.224
     5.65    0.203   0.218   0.222   0.230   0.236   0.241   0.236   0.222   0.218   0.210   0.208   0.208   0.219   0.213   0.208   0.204   0.207   0.208   0.200   0.202   0.197   0.200   0.192   0.192   0.193   0.194   0.195   0.199   0.201   0.203   0.206   0.219   0.225   0.226   0.232
     1.00    0.214   0.214   0.219   0.217   0.221   0.225   0.214   0.216   0.211   0.203   0.206   0.209   0.209   0.209   0.205   0.196   0.191   0.199   0.192   0.204   0.199   0.190   0.187   0.196   0.197   0.193   0.206   0.202   0.208   0.219   0.221   0.232   0.232   0.228   0.228

   Height   Standard deviation at grid points for the w component:
   168.40    0.142   0.144   0.140   0.141   0.142   0.146   0.147   0.146   0.145   0.142   0.143   0.142   0.139   0.130   0.133   0.137   0.138   0.146   0.148   0.148   0.147   0.141   0.145   0.136   0.132   0.140   0.142   0.139   0.137   0.133   0.135   0.140   0.140   0.142   0.141
   163.75    0.138   0.143   0.136   0.138   0.140   0.149   0.146   0.145   0.141   0.142   0.141   0.144   0.140   0.134   0.134   0.140   0.146   0.144   0.146   0.142   0.144   0.141   0.137   0.136   0.136   0.139   0.141   0.138   0.136   0.135   0.137   0.145   0.145   0.142   0.140
   159.10    0.141   0.138   0.137   0.142   0.146   0.148   0.149   0.149   0.139   0.142   0.139   0.143   0.142   0.144   0.142   0.140   0.140   0.137   0.138   0.140   0.142   0.136   0.132   0.132   0.135   0.136   0.139   0.133   0.137   0.135   0.136   0.142   0.146   0.143   0.142
   154.45    0.138   0.139   0.137   0.140   0.146   0.149   0.147   0.145   0.138   0.138   0.135   0.141   0.140   0.142   0.144   0.144   0.135   0.130   0.138   0.139   0.142   0.139   0.135   0.135   0.139   0.138   0.140   0.139   0.138   0.137   0.133   0.139   0.138   0.140   0.143
   149.80    0.140   0.138   0.141   0.142   0.142   0.142   0.138   0.140   0.143   0.136   0.137   0.139   0.143   0.139   0.142   0.140   0.134   0.134   0.131   0.141   0.139   0.137   0.138   0.139   0.134   0.134   0.139   0.139   0.136   0.140   0.137   0.140   0.141   0.143   0.145
   145.15    0.142   0.138   0.139   0.144   0.142   0.139   0.130   0.138   0.140   0.139   0.140   0.137   0.142   0.138   0.137   0.140   0.138   0.135   0.135   0.141   0.146   0.144   0.141   0.137   0.128   0.129   0.135   0.138   0.137   0.132   0.135   0.137   0.138   0.143   0.145
   140.50    0.145   0.137   0.139   0.137   0.138   0.132   0.132   0.136   0.145   0.141   0.138   0.136   0.137   0.139   0.141   0.140   0.142   0.138   0.138   0.144   0.144   0.145   0.143   0.142   0.133   0.138   0.134   0.140   0.137   0.134   0.139   0.137   0.139   0.140   0.144
   135.85    0.144   0.140   0.135   0.139   0.134   0.135   0.134   0.139   0.141   0.146   0.137   0.136   0.135   0.136   0.138   0.143   0.141   0.144   0.147   0.143   0.145   0.150   0.148   0.147   0.142   0.141   0.136   0.141   0.135   0.136   0.137   0.140   0.142   0.140   0.143
   131.20    0.142   0.139   0.139   0.143   0.142   0.133   0.137   0.141   0.143   0.142   0.142   0.138   0.138   0.140   0.134   0.139   0.141   0.145   0.142   0.143   0.146   0.146   0.141   0.145   0.140   0.135   0.132   0.139   0.139   0.140   0.140   0.142   0.142   0.144   0.144
   126.55    0.139   0.135   0.139   0.141   0.140   0.136   0.134   0.139   0.139   0.138   0.140   0.137   0.146   0.143   0.137   0.140   0.137   0.141   0.147   0.144   0.143   0.136   0.141   0.140   0.138   0.138   0.138   0.142   0.141   0.142   0.141   0.138   0.133   0.140   0.143
   121.90    0.134   0.135   0.136   0.138   0.142   0.139   0.141   0.137   0.142   0.139   0.142   0.143   0.146   0.143   0.137   0.141   0.139   0.141   0.142   0.143   0.137   0.142   0.143   0.142   0.138   0.140   0.137   0.140   0.142   0.142   0.141   0.137   0.133   0.139   0.137
   117.25    0.134   0.136   0.134   0.140   0.142   0.143   0.143   0.138   0.140   0.137   0.138   0.141   0.142   0.143   0.144   0.139   0.140   0.142   0.139   0.140   0.140   0.140   0.134   0.137   0.143   0.141   0.136   0.143   0.145   0.144   0.137   0.137   0.136   0.136   0.143
   112.60    0.132   0.138   0.143   0.143   0.141   0.136   0.139   0.138   0.142   0.139   0.135   0.145   0.146   0.143   0.139   0.139   0.142   0.143   0.138   0.139   0.141   0.140   0.139   0.140   0.148   0.143   0.144   0.145   0.145   0.145   0.145   0.136   0.138   0.141   0.142
   107.95    0.138   0.143   0.150   0.145   0.142   0.142   0.141   0.143   0.141   0.132   0.141   0.148   0.140   0.139   0.136   0.139   0.142   0.138   0.139   0.142   0.138   0.144   0.137   0.139   0.142   0.145   0.146   0.141   0.140   0.142   0.142   0.140   0.141   0.139   0.142
   103.30    0.142   0.144   0.144   0.148   0.137   0.139   0.138   0.145   0.142   0.138   0.139   0.140   0.138   0.141   0.137   0.139   0.137   0.133   0.135   0.141   0.145   0.136   0.138   0.142   0.137   0.139   0.142   0.140   0.139   0.137   0.138   0.136   0.143   0.143   0.141
    98.65    0.143   0.139   0.140   0.146   0.139   0.138   0.136   0.138   0.139   0.139   0.140   0.141   0.135   0.136   0.135   0.133   0.135   0.140   0.142   0.138   0.141   0.137   0.140   0.141   0.141   0.139   0.141   0.140   0.137   0.137   0.140   0.135   0.141   0.140   0.137
    94.00    0.140   0.136   0.141   0.139   0.136   0.141   0.139   0.141   0.143   0.144   0.140   0.141   0.134   0.136   0.133   0.135   0.135   0.141   0.142   0.147   0.142   0.142   0.142   0.145   0.145   0.148   0.147   0.141   0.143   0.139   0.140   0.136   0.136   0.136   0.132
    89.35    0.140   0.143   0.141   0.136   0.136   0.138   0.139   0.144   0.145   0.142   0.138   0.136   0.138   0.138   0.131   0.132   0.140   0.143   0.145   0.145   0.143   0.142   0.147   0.140   0.138   0.139   0.144   0.142   0.141   0.138   0.138   0.146   0.140   0.135   0.138
    84.70    0.148   0.148   0.145   0.141   0.139   0.138   0.139   0.145   0.146   0.147   0.140   0.139   0.137   0.138   0.137   0.138   0.140   0.140   0.146   0.147   0.144   0.141   0.141   0.143   0.138   0.144   0.142   0.142   0.140   0.138   0.140   0.139   0.137   0.136   0.136
    80.05    0.142   0.142   0.139   0.141   0.140   0.143   0.140   0.142   0.139   0.141   0.142   0.144   0.144   0.135   0.133   0.142   0.142   0.141   0.145   0.148   0.144   0.135   0.135   0.139   0.144   0.142   0.143   0.142   0.142   0.140   0.134   0.138   0.137   0.139   0.139
    75.40    0.144   0.138   0.138   0.141   0.142   0.145   0.145   0.144   0.142   0.136   0.138   0.139   0.144   0.146   0.143   0.145   0.144   0.144   0.143   0.146   0.145   0.136   0.144   0.143   0.144   0.139   0.140   0.142   0.139   0.141   0.139   0.136   0.136   0.140   0.137
    70.75    0.143   0.144   0.140   0.141   0.138   0.144   0.147   0.143   0.140   0.139   0.140   0.145   0.144   0.144   0.147   0.150   0.142   0.142   0.143   0.141   0.134   0.136   0.139   0.140   0.141   0.138   0.141   0.143   0.143   0.140   0.142   0.135   0.140   0.142   0.132
    66.10    0.139   0.141   0.144   0.145   0.142   0.141   0.143   0.141   0.133   0.140   0.139   0.140   0.145   0.150   0.148   0.144   0.142   0.146   0.141   0.141   0.139   0.139   0.143   0.137   0.139   0.141   0.141   0.140   0.145   0.144   0.144   0.144   0.143   0.141   0.136
    61.45    0.145   0.142   0.139   0.143   0.141   0.144   0.147   0.145   0.140   0.141   0.140   0.136   0.138   0.140   0.143   0.141   0.145   0.140   0.143   0.143   0.138   0.140   0.141   0.139   0.134   0.138   0.142   0.138   0.144   0.145   0.153   0.151   0.141   0.141   0.137
    56.80    0.141   0.137   0.140   0.142   0.142   0.143   0.146   0.145   0.142   0.141   0.140   0.138   0.140   0.143   0.138   0.140   0.142   0.139   0.145   0.140   0.138   0.142   0.138   0.138   0.133   0.143   0.141   0.144   0.142   0.148   0.146   0.146   0.139   0.139   0.139
    52.15    0.143   0.144   0.142   0.138   0.139   0.146   0.150   0.144   0.142   0.141   0.143   0.142   0.142   0.144   0.142   0.136   0.135   0.139   0.144   0.143   0.137   0.143   0.136   0.134   0.139   0.146   0.145   0.144   0.145   0.140   0.144   0.142   0.136   0.138   0.142
    47.50    0.144   0.143   0.145   0.136   0.133   0.143   0.143   0.143   0.139   0.137   0.140   0.138   0.137   0.140   0.140   0.139   0.139   0.136   0.137   0.141   0.142   0.140   0.138   0.134   0.140   0.141   0.142   0.140   0.140   0.139   0.139   0.140   0.138   0.141   0.140
    42.85    0.140   0.142   0.141   0.138   0.143   0.139   0.141   0.140   0.139   0.135   0.140   0.138   0.139   0.137   0.131   0.136   0.136   0.138   0.138   0.138   0.137   0.139   0.136   0.140   0.144   0.144   0.145   0.141   0.137   0.137   0.139   0.137   0.139   0.136   0.139
    38.20    0.146   0.143   0.138   0.142   0.142   0.141   0.143   0.139   0.140   0.136   0.135   0.138   0.134   0.135   0.128   0.136   0.137   0.133   0.134   0.135   0.136   0.140   0.143   0.144   0.144   0.150   0.142   0.137   0.137   0.139   0.139   0.134   0.132   0.136   0.141
    33.55    0.143   0.141   0.143   0.142   0.138   0.140   0.147   0.144   0.136   0.133   0.138   0.136   0.136   0.135   0.131   0.134   0.136   0.134   0.134   0.133   0.136   0.138   0.138   0.140   0.143   0.146   0.138   0.142   0.137   0.139   0.138   0.140   0.135   0.139   0.139
    28.90    0.143   0.144   0.144   0.143   0.136   0.139   0.141   0.140   0.142   0.138   0.140   0.144   0.139   0.136   0.134   0.131   0.131   0.126   0.132   0.135   0.135   0.143   0.140   0.147   0.142   0.146   0.144   0.141   0.142   0.141   0.142   0.137   0.134   0.137   0.141
    24.25    0.138   0.144   0.145   0.145   0.141   0.143   0.142   0.145   0.147   0.144   0.140   0.136   0.139   0.139   0.138   0.139   0.127   0.124   0.133   0.136   0.135   0.141   0.143   0.148   0.144   0.144   0.142   0.145   0.140   0.141   0.141   0.143   0.137   0.138   0.142
    19.60    0.138   0.140   0.144   0.145   0.149   0.145   0.146   0.145   0.147   0.143   0.137   0.139   0.140   0.133   0.135   0.136   0.134   0.130   0.131   0.142   0.136   0.136   0.138   0.140   0.141   0.144   0.147   0.145   0.144   0.142   0.144   0.143   0.141   0.139   0.138
    14.95    0.139   0.141   0.141   0.144   0.148   0.146   0.145   0.143   0.144   0.138   0.141   0.145   0.137   0.134   0.134   0.130   0.129   0.134   0.136   0.138   0.140   0.133   0.137   0.136   0.141   0.141   0.144   0.147   0.144   0.141   0.138   0.138   0.137   0.141   0.140
    10.30    0.143   0.139   0.142   0.140   0.147   0.150   0.146   0.146   0.142   0.140   0.144   0.140   0.133   0.134   0.133   0.127   0.133   0.134   0.137   0.135   0.138   0.138   0.137   0.139   0.140   0.142   0.144   0.140   0.143   0.140   0.136   0.137   0.140   0.138   0.140
     5.65    0.144   0.137   0.139   0.142   0.144   0.147   0.151   0.143   0.143   0.142   0.141   0.139   0.135   0.131   0.131   0.127   0.128   0.133   0.135   0.135   0.133   0.137   0.139   0.133   0.138   0.140   0.142   0.139   0.139   0.135   0.136   0.134   0.136   0.135   0.138
     1.00    0.140   0.141   0.141   0.143   0.143   0.145   0.145   0.144   0.140   0.140   0.138   0.136   0.130   0.132   0.132   0.131   0.131   0.130   0.135   0.136   0.138   0.137   0.137   0.137   0.139   0.140   0.135   0.138   0.134   0.138   0.136   0.135   0.141   0.139   0.137

   Mean standard deviation across all grid points:
      u component:    0.306 m/s
      v component:    0.228 m/s
      w component:    0.140 m/s


U-component (X) statistics from the interpolated hub point:

   Mean =   9.9913 m/s
   TI   =   2.7612 %


Processing complete.  6096.5 CPU seconds used.
