
This summary file was generated by TurbSim (from OpenFAST-v3.5.3) on 20-Apr-2025 at 07:52:39.


Runtime Options:

-228636811  Random seed #1
    RANLUX  Type of random number generator
         F  Output binary HH turbulence parameters?
         F  Output formatted turbulence parameters?
         F  Output AeroDyn HH files?
         T  Output AeroDyn FF files?
         F  Output BLADED FF files?
         F  Output tower data?
         F  Output HAWC FF files?
         F  Output formatted FF files?
         T  Output coherent turbulence time step file?
 0 -  NONE  IEC turbulence models scaled to exact specified standard deviation


Turbine/Model Specifications:

        37  Vertical grid-point matrix dimension
        35  Horizontal grid-point matrix dimension
     0.250  Time step [seconds]
   900.000  Analysis time [seconds]
   900.000  Usable output time [seconds]
    89.350  Hub height [m]
   167.400  Grid height [m]
   158.100  Grid width [m]
     0.000  Vertical flow angle [degrees]
     0.000  Horizontal flow angle [degrees]


Meteorological Boundary Conditions:

    TIMESR  User-input time series spectral model
       N/A  IEC standard
       N/A  IEC turbulence characteristic
       N/A  IEC turbulence type
       N/A  IEC Extreme Turbulence Model (ETM) "c" parameter [m/s]
       PL   Wind profile type
    90.000  Reference height [m]
    10.000  Reference wind speed [m/s]
       N/A  Jet height [m]
     0.120  Power law exponent
     0.030  Surface roughness length [m]


Non-IEC Meteorological Boundary Conditions:

    45.000  Site latitude [degrees]
     0.050  Gradient Richardson number
     0.480  Friction or shear velocity [m/s]
       N/A  Mixing layer depth [m]
       N/A  Mean hub u'w' Reynolds stress
       N/A  Mean hub u'v' Reynolds stress
       N/A  Mean hub v'w' Reynolds stress


Spatial Coherence Models:

       IEC  u-component coherence model
       IEC  v-component coherence model
       IEC  w-component coherence model
(   12.000, 0.353E-03)  u-component coherence parameters
(   12.000, 0.353E-03)  v-component coherence parameters
(   12.000, 0.353E-03)  w-component coherence parameters
       N/A  Coherence exponent


Coherent Turbulence Scaling Parameters:

.\EventData
            Name of the path containing the coherent turbulence data files
       les  Type of coherent turbulence data files
     1.000  Disturbance scale (ratio of wave height to rotor diameter)
     0.500  Fractional location of tower centerline from right
     0.500  Fractional location of hub height from the bottom of the dataset
    30.000  Minimum start time for coherent structures [seconds]


Profiles from User-Defined Time-Series Input:

  Height   Wind Speed   Horizontal Angle   Vertical Angle
   (m)        (m/s)          (deg)              (deg)    
  ------   ----------   ----------------   --------------
   94.00      10.00          -0.63               -0.00


You have requested that the following file(s) be generated:

   /kfs3/scratch/agupta/Projects/RL_Incubator/FinalRuns_Veer/Seed4/./FFSim_Seed4/Cond00_v10.0_PL0.12_TI5.0/Case2_wdirp04/Seed_1/TurbSim/HighT12.bts (AeroDyn/TurbSim full-field wind file)


Turbulence Simulation Scaling Parameter Summary:

   Turbulence model used                            =  User-input time series
   Gradient Richardson number                       =    0.050
   Monin-Obukhov (M-O) z/L parameter                =    0.067
   Monin-Obukhov (M-O) length scale                 = 1340.250 m
   Mean wind speed at hub height                    =    9.991 m/s

   Wind profile type                                =  Power law
   Power law exponent                               =    0.120
   Mean shear across rotor disk                     =    0.019 (m/s)/m
   Assumed rotor diameter                           =  158.100 m
   Surface roughness length                         =    0.030 m

   Nyquist frequency of turbulent wind field        =    2.000 Hz

   Number of time steps in the FFT                  =     3600
   Number of time steps output                      =     3600
   Number of points simulated                       =     1296


Mean Flow Angles:

   Vertical   =   0.0 degrees
   Horizontal =   0.0 degrees

Mean Wind Speed Profile:

   Height    Wind Speed   Horizontal Angle  Vertical Angle  U-comp (X)   V-comp (Y)   W-comp (Z)
     (m)        (m/s)         (degrees)       (degrees)       (m/s)        (m/s)        (m/s)   
   ------    ----------   ----------------  --------------  ----------   ----------   ----------
    168.4       10.78            0.00            0.00         10.78         0.00         0.00
    163.7       10.74            0.00            0.00         10.74         0.00         0.00
    159.1       10.71            0.00            0.00         10.71         0.00         0.00
    154.4       10.67            0.00            0.00         10.67         0.00         0.00
    149.8       10.63            0.00            0.00         10.63         0.00         0.00
    145.1       10.59            0.00            0.00         10.59         0.00         0.00
    140.5       10.55            0.00            0.00         10.55         0.00         0.00
    135.8       10.51            0.00            0.00         10.51         0.00         0.00
    131.2       10.46            0.00            0.00         10.46         0.00         0.00
    126.5       10.42            0.00            0.00         10.42         0.00         0.00
    121.9       10.37            0.00            0.00         10.37         0.00         0.00
    117.2       10.32            0.00            0.00         10.32         0.00         0.00
    112.6       10.27            0.00            0.00         10.27         0.00         0.00
    107.9       10.22            0.00            0.00         10.22         0.00         0.00
    103.3       10.17            0.00            0.00         10.17         0.00         0.00
     98.6       10.11            0.00            0.00         10.11         0.00         0.00
     94.0       10.05            0.00            0.00         10.05         0.00         0.00
     89.3        9.99            0.00            0.00          9.99         0.00         0.00
     84.7        9.93            0.00            0.00          9.93         0.00         0.00
     80.0        9.86            0.00            0.00          9.86         0.00         0.00
     75.4        9.79            0.00            0.00          9.79         0.00         0.00
     70.7        9.72            0.00            0.00          9.72         0.00         0.00
     66.1        9.64            0.00            0.00          9.64         0.00         0.00
     61.4        9.55            0.00            0.00          9.55         0.00         0.00
     56.8        9.46            0.00            0.00          9.46         0.00         0.00
     52.1        9.37            0.00            0.00          9.37         0.00         0.00
     47.5        9.26            0.00            0.00          9.26         0.00         0.00
     42.8        9.15            0.00            0.00          9.15         0.00         0.00
     38.2        9.02            0.00            0.00          9.02         0.00         0.00
     33.5        8.88            0.00            0.00          8.88         0.00         0.00
     28.9        8.73            0.00            0.00          8.73         0.00         0.00
     24.2        8.54            0.00            0.00          8.54         0.00         0.00
     19.6        8.33            0.00            0.00          8.33         0.00         0.00
     14.9        8.06            0.00            0.00          8.06         0.00         0.00
     10.3        7.71            0.00            0.00          7.71         0.00         0.00
      5.6        7.17            0.00            0.00          7.17         0.00         0.00
      1.0        5.83            0.00            0.00          5.83         0.00         0.00


Harvested Random Seeds after Generation of the Random Numbers:

     65026800 K 1
            0 K 2


Hub-Height Simulated Turbulence Statistical Summary:

   Type of Wind        Min (m/s)   Mean (m/s)    Max (m/s)  Sigma (m/s)       TI (%)
   ----------------    ---------   ----------    ---------  -----------       ------
   Longitudinal (u)         8.60         9.99        11.27        0.443        4.433
   Lateral (v)             -1.28        -0.00         1.31        0.380        3.808
   Vertical (w)            -0.84         0.00         0.86        0.229        2.290
   U component              8.60         9.99        11.27        0.443        4.433
   V component             -1.28        -0.00         1.31        0.380        3.808
   W component             -0.84         0.00         0.86        0.229        2.290
   Horizontal (U&V)         8.60        10.00        11.28        0.442        4.423
   Total                    8.60        10.00        11.29        0.442        4.423

                       Min Reynolds     Mean Reynolds    Max Reynolds    Correlation
   Product             Stress (m/s)^2   Stress (m/s)^2   Stress (m/s)^2  Coefficient
   ----------------    --------------   --------------   --------------  -----------
   u'w'                     -0.906            -0.004             0.545        -0.035
   u'v'                     -0.702             0.026             1.190         0.155
   v'w'                     -0.539            -0.004             0.435        -0.042


   Friction Velocity (Ustar)  =      0.060 m/s
   Maximum Instantaneous TKE  =      1.193 (m/s)^2
   Maximum Instantaneous CTKE =      0.598 (m/s)^2


Grid Point Variance Summary:

   Y-coord  -79.05  -74.40  -69.75  -65.10  -60.45  -55.80  -51.15  -46.50  -41.85  -37.20  -32.55  -27.90  -23.25  -18.60  -13.95   -9.30   -4.65    0.00    4.65    9.30   13.95   18.60   23.25   27.90   32.55   37.20   41.85   46.50   51.15   55.80   60.45   65.10   69.75   74.40   79.05

   Height   Standard deviation at grid points for the u component:
   168.40    0.445   0.439   0.427   0.428   0.441   0.468   0.487   0.463   0.469   0.490   0.514   0.491   0.484   0.482   0.521   0.503   0.477   0.486   0.468   0.514   0.510   0.504   0.501   0.520   0.556   0.559   0.578   0.592   0.611   0.573   0.579   0.557   0.537   0.525   0.527
   163.75    0.463   0.448   0.441   0.431   0.473   0.483   0.501   0.487   0.456   0.450   0.477   0.469   0.489   0.481   0.491   0.487   0.499   0.478   0.495   0.520   0.507   0.510   0.515   0.508   0.550   0.559   0.560   0.559   0.589   0.582   0.563   0.551   0.534   0.513   0.537
   159.10    0.449   0.414   0.439   0.460   0.475   0.509   0.503   0.500   0.462   0.449   0.460   0.470   0.452   0.477   0.499   0.499   0.490   0.470   0.495   0.505   0.463   0.497   0.488   0.534   0.521   0.541   0.540   0.560   0.581   0.561   0.554   0.540   0.524   0.522   0.528
   154.45    0.453   0.450   0.451   0.430   0.474   0.467   0.490   0.495   0.495   0.479   0.456   0.502   0.498   0.458   0.478   0.456   0.431   0.453   0.473   0.471   0.505   0.490   0.505   0.534   0.528   0.519   0.518   0.549   0.543   0.535   0.560   0.568   0.553   0.532   0.509
   149.80    0.460   0.431   0.409   0.402   0.413   0.452   0.484   0.454   0.453   0.494   0.470   0.514   0.482   0.443   0.449   0.459   0.424   0.466   0.466   0.456   0.491   0.465   0.485   0.520   0.555   0.522   0.515   0.544   0.501   0.520   0.545   0.561   0.565   0.541   0.513
   145.15    0.439   0.431   0.391   0.421   0.415   0.453   0.445   0.440   0.447   0.474   0.479   0.476   0.476   0.446   0.425   0.444   0.426   0.444   0.439   0.435   0.470   0.489   0.528   0.548   0.561   0.563   0.521   0.521   0.492   0.491   0.534   0.560   0.539   0.539   0.524
   140.50    0.416   0.410   0.392   0.425   0.424   0.437   0.454   0.432   0.452   0.454   0.436   0.407   0.420   0.409   0.427   0.408   0.418   0.430   0.462   0.472   0.490   0.514   0.519   0.540   0.554   0.564   0.539   0.534   0.514   0.512   0.532   0.520   0.535   0.512   0.522
   135.85    0.421   0.428   0.428   0.410   0.423   0.449   0.434   0.398   0.412   0.435   0.437   0.393   0.402   0.435   0.425   0.405   0.433   0.456   0.476   0.500   0.462   0.524   0.503   0.551   0.577   0.587   0.577   0.572   0.550   0.515   0.544   0.556   0.525   0.519   0.532
   131.20    0.430   0.432   0.436   0.427   0.441   0.428   0.443   0.410   0.371   0.418   0.411   0.411   0.400   0.433   0.431   0.426   0.449   0.434   0.472   0.514   0.525   0.517   0.528   0.556   0.570   0.593   0.579   0.572   0.552   0.558   0.577   0.572   0.533   0.498   0.508
   126.55    0.446   0.434   0.458   0.442   0.462   0.463   0.424   0.419   0.406   0.406   0.393   0.415   0.418   0.402   0.416   0.407   0.419   0.437   0.464   0.529   0.547   0.559   0.525   0.532   0.561   0.575   0.580   0.572   0.592   0.587   0.594   0.555   0.552   0.521   0.498
   121.90    0.425   0.444   0.459   0.444   0.462   0.450   0.416   0.416   0.396   0.417   0.390   0.400   0.388   0.406   0.387   0.433   0.468   0.455   0.455   0.498   0.515   0.561   0.534   0.533   0.544   0.595   0.612   0.602   0.596   0.593   0.576   0.566   0.542   0.527   0.508
   117.25    0.432   0.434   0.448   0.413   0.411   0.434   0.420   0.424   0.412   0.393   0.398   0.402   0.391   0.431   0.424   0.433   0.470   0.487   0.495   0.477   0.522   0.553   0.531   0.536   0.562   0.580   0.601   0.563   0.567   0.575   0.562   0.562   0.544   0.539   0.514
   112.60    0.431   0.422   0.421   0.414   0.436   0.420   0.425   0.422   0.428   0.425   0.396   0.385   0.407   0.408   0.432   0.428   0.452   0.456   0.479   0.501   0.514   0.563   0.524   0.559   0.545   0.564   0.591   0.593   0.568   0.542   0.538   0.576   0.532   0.528   0.503
   107.95    0.453   0.424   0.414   0.399   0.401   0.422   0.430   0.426   0.436   0.452   0.437   0.439   0.422   0.417   0.434   0.413   0.455   0.459   0.470   0.514   0.491   0.530   0.569   0.548   0.512   0.554   0.583   0.571   0.581   0.539   0.528   0.567   0.553   0.512   0.504
   103.30    0.472   0.428   0.419   0.412   0.389   0.406   0.428   0.461   0.465   0.438   0.441   0.473   0.449   0.445   0.434   0.426   0.435   0.449   0.492   0.498   0.504   0.524   0.526   0.530   0.545   0.546   0.536   0.529   0.529   0.513   0.534   0.534   0.534   0.520   0.529
    98.65    0.480   0.466   0.466   0.467   0.417   0.411   0.422   0.433   0.439   0.425   0.442   0.456   0.481   0.461   0.461   0.450   0.449   0.461   0.470   0.484   0.514   0.530   0.525   0.528   0.508   0.521   0.520   0.518   0.510   0.505   0.520   0.515   0.508   0.521   0.533
    94.00    0.504   0.515   0.487   0.500   0.445   0.428   0.403   0.433   0.417   0.398   0.425   0.465   0.489   0.483   0.472   0.470   0.439   0.462   0.456   0.476   0.494   0.497   0.483   0.522   0.478   0.499   0.502   0.515   0.493   0.497   0.490   0.486   0.496   0.503   0.519
    89.35    0.496   0.494   0.493   0.475   0.463   0.426   0.386   0.391   0.420   0.418   0.402   0.431   0.452   0.478   0.484   0.463   0.459   0.443   0.441   0.459   0.498   0.499   0.513   0.506   0.509   0.494   0.515   0.513   0.482   0.499   0.520   0.480   0.490   0.484   0.464
    84.70    0.497   0.484   0.482   0.481   0.456   0.459   0.416   0.414   0.408   0.415   0.409   0.436   0.468   0.445   0.488   0.501   0.469   0.465   0.452   0.440   0.464   0.459   0.491   0.493   0.482   0.488   0.492   0.504   0.502   0.522   0.498   0.500   0.465   0.469   0.476
    80.05    0.489   0.517   0.472   0.501   0.467   0.437   0.423   0.419   0.402   0.427   0.426   0.442   0.427   0.481   0.486   0.492   0.472   0.473   0.474   0.487   0.482   0.463   0.475   0.487   0.505   0.480   0.483   0.484   0.512   0.504   0.478   0.510   0.492   0.489   0.523
    75.40    0.489   0.462   0.469   0.465   0.457   0.435   0.424   0.421   0.418   0.416   0.436   0.465   0.475   0.481   0.496   0.477   0.489   0.498   0.494   0.493   0.466   0.485   0.499   0.499   0.503   0.468   0.485   0.467   0.491   0.489   0.459   0.492   0.500   0.497   0.490
    70.75    0.469   0.475   0.482   0.472   0.450   0.457   0.456   0.433   0.424   0.458   0.454   0.481   0.486   0.499   0.523   0.521   0.488   0.466   0.484   0.478   0.491   0.525   0.545   0.499   0.524   0.507   0.496   0.476   0.510   0.491   0.481   0.489   0.474   0.481   0.476
    66.10    0.461   0.474   0.439   0.457   0.468   0.440   0.465   0.458   0.454   0.462   0.469   0.477   0.485   0.495   0.511   0.482   0.490   0.462   0.467   0.475   0.485   0.506   0.522   0.486   0.527   0.521   0.473   0.477   0.506   0.504   0.516   0.504   0.491   0.466   0.466
    61.45    0.454   0.476   0.468   0.463   0.469   0.435   0.447   0.450   0.438   0.455   0.446   0.483   0.491   0.500   0.502   0.468   0.470   0.481   0.471   0.467   0.471   0.460   0.454   0.494   0.515   0.539   0.492   0.490   0.524   0.539   0.536   0.516   0.508   0.504   0.465
    56.80    0.476   0.474   0.469   0.461   0.443   0.443   0.440   0.437   0.439   0.458   0.467   0.513   0.504   0.505   0.500   0.484   0.480   0.462   0.483   0.495   0.480   0.459   0.454   0.484   0.493   0.514   0.514   0.518   0.558   0.610   0.551   0.550   0.531   0.501   0.455
    52.15    0.482   0.491   0.474   0.451   0.451   0.449   0.422   0.432   0.426   0.455   0.495   0.468   0.464   0.495   0.514   0.501   0.473   0.478   0.469   0.478   0.487   0.475   0.442   0.441   0.492   0.504   0.518   0.531   0.549   0.563   0.583   0.519   0.513   0.487   0.450
    47.50    0.513   0.517   0.493   0.470   0.456   0.444   0.429   0.407   0.441   0.458   0.460   0.492   0.453   0.501   0.507   0.498   0.492   0.507   0.485   0.479   0.454   0.465   0.456   0.466   0.475   0.499   0.509   0.532   0.529   0.540   0.554   0.499   0.489   0.489   0.461
    42.85    0.499   0.505   0.484   0.453   0.432   0.427   0.417   0.392   0.413   0.426   0.460   0.478   0.456   0.464   0.480   0.503   0.521   0.557   0.536   0.505   0.470   0.459   0.448   0.466   0.510   0.510   0.508   0.548   0.529   0.506   0.509   0.518   0.488   0.488   0.451
    38.20    0.470   0.471   0.462   0.442   0.425   0.395   0.398   0.399   0.405   0.441   0.450   0.462   0.498   0.508   0.506   0.492   0.528   0.551   0.511   0.459   0.454   0.462   0.458   0.483   0.497   0.526   0.558   0.577   0.537   0.530   0.511   0.487   0.499   0.479   0.475
    33.55    0.474   0.466   0.433   0.436   0.417   0.440   0.406   0.407   0.403   0.432   0.441   0.470   0.472   0.471   0.503   0.502   0.522   0.515   0.489   0.432   0.430   0.473   0.477   0.486   0.557   0.564   0.580   0.534   0.568   0.543   0.495   0.474   0.491   0.477   0.475
    28.90    0.478   0.455   0.422   0.427   0.408   0.403   0.414   0.409   0.408   0.426   0.414   0.427   0.472   0.482   0.501   0.489   0.471   0.472   0.463   0.427   0.425   0.431   0.474   0.484   0.544   0.571   0.574   0.597   0.582   0.588   0.544   0.549   0.496   0.452   0.463
    24.25    0.478   0.478   0.439   0.446   0.426   0.446   0.420   0.410   0.403   0.388   0.418   0.424   0.469   0.448   0.475   0.468   0.445   0.435   0.426   0.428   0.434   0.460   0.524   0.515   0.550   0.573   0.587   0.619   0.595   0.616   0.576   0.536   0.487   0.469   0.465
    19.60    0.461   0.468   0.457   0.444   0.443   0.442   0.434   0.438   0.403   0.395   0.419   0.412   0.442   0.461   0.471   0.462   0.416   0.433   0.433   0.465   0.486   0.487   0.516   0.549   0.548   0.580   0.588   0.588   0.576   0.593   0.557   0.547   0.510   0.503   0.459
    14.95    0.468   0.447   0.451   0.444   0.445   0.466   0.474   0.451   0.423   0.411   0.430   0.440   0.468   0.465   0.484   0.460   0.425   0.413   0.421   0.444   0.447   0.491   0.515   0.522   0.544   0.581   0.551   0.582   0.545   0.569   0.547   0.511   0.498   0.503   0.477
    10.30    0.453   0.445   0.433   0.429   0.457   0.456   0.462   0.449   0.434   0.422   0.417   0.441   0.452   0.467   0.461   0.465   0.434   0.432   0.432   0.448   0.471   0.464   0.474   0.528   0.526   0.548   0.553   0.547   0.597   0.531   0.529   0.497   0.541   0.504   0.489
     5.65    0.436   0.459   0.487   0.439   0.434   0.426   0.419   0.443   0.433   0.436   0.438   0.427   0.440   0.433   0.470   0.484   0.449   0.428   0.393   0.416   0.454   0.438   0.464   0.513   0.493   0.528   0.522   0.536   0.551   0.550   0.575   0.534   0.521   0.534   0.478
     1.00    0.415   0.437   0.449   0.426   0.434   0.410   0.429   0.432   0.421   0.432   0.427   0.417   0.440   0.489   0.468   0.499   0.478   0.429   0.426   0.424   0.434   0.436   0.474   0.489   0.501   0.522   0.530   0.544   0.568   0.566   0.591   0.578   0.502   0.497   0.478

   Height   Standard deviation at grid points for the v component:
   168.40    0.372   0.366   0.368   0.371   0.379   0.392   0.393   0.402   0.414   0.420   0.404   0.392   0.390   0.356   0.361   0.378   0.387   0.358   0.360   0.351   0.369   0.369   0.362   0.353   0.363   0.381   0.394   0.382   0.360   0.352   0.341   0.342   0.353   0.371   0.372
   163.75    0.361   0.363   0.359   0.394   0.395   0.395   0.406   0.398   0.410   0.398   0.398   0.400   0.402   0.394   0.384   0.376   0.378   0.357   0.350   0.354   0.354   0.372   0.381   0.363   0.367   0.386   0.370   0.367   0.371   0.353   0.328   0.343   0.355   0.342   0.363
   159.10    0.373   0.379   0.379   0.381   0.373   0.385   0.398   0.404   0.390   0.406   0.370   0.395   0.423   0.411   0.387   0.377   0.369   0.358   0.356   0.361   0.362   0.361   0.357   0.362   0.354   0.371   0.385   0.366   0.386   0.364   0.347   0.350   0.341   0.354   0.348
   154.45    0.385   0.417   0.385   0.381   0.393   0.411   0.382   0.394   0.392   0.396   0.383   0.405   0.400   0.396   0.373   0.387   0.358   0.359   0.348   0.370   0.376   0.358   0.341   0.386   0.366   0.369   0.394   0.373   0.381   0.366   0.360   0.369   0.358   0.350   0.336
   149.80    0.413   0.433   0.412   0.391   0.405   0.417   0.401   0.400   0.396   0.392   0.390   0.403   0.396   0.396   0.395   0.386   0.368   0.368   0.356   0.347   0.363   0.360   0.354   0.370   0.370   0.372   0.377   0.379   0.354   0.361   0.348   0.346   0.330   0.338   0.337
   145.15    0.411   0.430   0.410   0.388   0.414   0.403   0.410   0.408   0.403   0.403   0.383   0.390   0.377   0.379   0.391   0.391   0.388   0.360   0.367   0.354   0.363   0.361   0.344   0.347   0.351   0.354   0.356   0.356   0.360   0.368   0.352   0.364   0.341   0.335   0.333
   140.50    0.392   0.416   0.410   0.407   0.390   0.393   0.402   0.415   0.418   0.413   0.395   0.394   0.379   0.383   0.394   0.396   0.381   0.375   0.377   0.372   0.375   0.371   0.362   0.372   0.361   0.338   0.346   0.350   0.349   0.367   0.371   0.359   0.339   0.343   0.351
   135.85    0.390   0.399   0.407   0.400   0.393   0.374   0.380   0.384   0.390   0.394   0.397   0.382   0.370   0.373   0.371   0.372   0.387   0.369   0.386   0.419   0.397   0.366   0.367   0.373   0.360   0.342   0.351   0.361   0.343   0.351   0.353   0.343   0.323   0.330   0.329
   131.20    0.375   0.375   0.395   0.408   0.388   0.364   0.374   0.378   0.370   0.367   0.374   0.378   0.374   0.394   0.395   0.382   0.385   0.396   0.396   0.410   0.410   0.389   0.368   0.371   0.364   0.356   0.341   0.348   0.330   0.336   0.353   0.348   0.339   0.331   0.321
   126.55    0.389   0.386   0.385   0.380   0.377   0.376   0.387   0.378   0.374   0.372   0.339   0.357   0.366   0.365   0.385   0.373   0.402   0.396   0.378   0.383   0.399   0.363   0.354   0.371   0.364   0.357   0.349   0.340   0.326   0.319   0.331   0.321   0.320   0.328   0.329
   121.90    0.375   0.379   0.371   0.374   0.373   0.357   0.377   0.375   0.367   0.360   0.321   0.344   0.336   0.368   0.368   0.384   0.388   0.388   0.379   0.397   0.383   0.376   0.356   0.341   0.335   0.349   0.339   0.327   0.337   0.335   0.324   0.327   0.314   0.320   0.336
   117.25    0.355   0.358   0.357   0.367   0.373   0.362   0.370   0.355   0.361   0.353   0.335   0.333   0.359   0.370   0.388   0.379   0.397   0.403   0.390   0.381   0.383   0.359   0.372   0.351   0.328   0.325   0.346   0.329   0.331   0.332   0.319   0.324   0.326   0.311   0.336
   112.60    0.351   0.371   0.348   0.374   0.376   0.372   0.358   0.336   0.335   0.375   0.353   0.345   0.359   0.369   0.362   0.391   0.404   0.377   0.377   0.386   0.385   0.361   0.347   0.357   0.352   0.335   0.318   0.326   0.333   0.323   0.316   0.331   0.326   0.328   0.332
   107.95    0.354   0.347   0.351   0.370   0.369   0.351   0.357   0.330   0.346   0.341   0.354   0.353   0.363   0.363   0.370   0.385   0.386   0.385   0.383   0.366   0.353   0.349   0.335   0.327   0.325   0.313   0.320   0.320   0.331   0.325   0.309   0.334   0.340   0.341   0.354
   103.30    0.336   0.353   0.346   0.356   0.355   0.352   0.337   0.345   0.347   0.350   0.349   0.346   0.354   0.344   0.369   0.374   0.392   0.386   0.385   0.369   0.356   0.343   0.346   0.339   0.321   0.338   0.319   0.324   0.335   0.323   0.330   0.331   0.326   0.333   0.353
    98.65    0.328   0.331   0.327   0.337   0.347   0.363   0.355   0.350   0.332   0.355   0.345   0.345   0.346   0.340   0.367   0.383   0.368   0.367   0.371   0.369   0.356   0.337   0.352   0.341   0.342   0.337   0.336   0.345   0.334   0.337   0.338   0.341   0.323   0.348   0.355
    94.00    0.338   0.331   0.321   0.341   0.357   0.356   0.338   0.353   0.348   0.356   0.342   0.347   0.347   0.349   0.347   0.364   0.365   0.367   0.371   0.377   0.365   0.367   0.337   0.323   0.319   0.337   0.350   0.348   0.341   0.327   0.326   0.334   0.330   0.342   0.358
    89.35    0.356   0.337   0.328   0.322   0.349   0.352   0.338   0.349   0.368   0.353   0.355   0.352   0.334   0.353   0.357   0.355   0.376   0.380   0.364   0.357   0.350   0.354   0.335   0.336   0.358   0.330   0.349   0.332   0.357   0.346   0.339   0.337   0.348   0.346   0.349
    84.70    0.350   0.336   0.331   0.327   0.333   0.341   0.348   0.378   0.369   0.349   0.338   0.349   0.359   0.369   0.372   0.357   0.356   0.352   0.349   0.342   0.338   0.341   0.338   0.328   0.334   0.339   0.333   0.325   0.342   0.341   0.335   0.336   0.344   0.362   0.365
    80.05    0.340   0.343   0.333   0.333   0.328   0.341   0.347   0.362   0.383   0.369   0.356   0.350   0.359   0.375   0.350   0.342   0.344   0.348   0.364   0.358   0.342   0.338   0.336   0.323   0.323   0.325   0.340   0.356   0.345   0.340   0.332   0.344   0.349   0.367   0.377
    75.40    0.335   0.333   0.332   0.350   0.360   0.347   0.344   0.362   0.361   0.374   0.352   0.348   0.377   0.372   0.370   0.340   0.343   0.345   0.364   0.362   0.347   0.343   0.348   0.337   0.330   0.323   0.348   0.335   0.349   0.336   0.316   0.328   0.341   0.360   0.374
    70.75    0.335   0.324   0.309   0.337   0.349   0.356   0.349   0.349   0.370   0.375   0.379   0.379   0.391   0.381   0.385   0.363   0.348   0.351   0.359   0.342   0.349   0.345   0.342   0.334   0.338   0.326   0.335   0.332   0.339   0.353   0.327   0.319   0.324   0.365   0.387
    66.10    0.342   0.349   0.337   0.309   0.344   0.359   0.338   0.344   0.369   0.373   0.376   0.373   0.382   0.397   0.387   0.375   0.347   0.342   0.357   0.353   0.336   0.339   0.352   0.324   0.328   0.312   0.324   0.320   0.345   0.349   0.338   0.331   0.354   0.369   0.398
    61.45    0.353   0.365   0.353   0.369   0.352   0.359   0.345   0.348   0.357   0.364   0.386   0.376   0.365   0.373   0.376   0.354   0.328   0.337   0.325   0.354   0.345   0.352   0.341   0.341   0.329   0.324   0.327   0.343   0.344   0.353   0.329   0.349   0.376   0.383   0.384
    56.80    0.379   0.365   0.379   0.369   0.382   0.362   0.359   0.352   0.341   0.357   0.359   0.375   0.367   0.351   0.361   0.342   0.325   0.318   0.343   0.347   0.367   0.359   0.340   0.355   0.313   0.329   0.331   0.337   0.348   0.362   0.350   0.383   0.385   0.388   0.396
    52.15    0.370   0.365   0.369   0.381   0.402   0.363   0.357   0.358   0.339   0.357   0.368   0.345   0.352   0.360   0.353   0.340   0.344   0.336   0.352   0.357   0.378   0.366   0.338   0.331   0.338   0.340   0.352   0.355   0.357   0.364   0.367   0.376   0.375   0.395   0.397
    47.50    0.376   0.354   0.382   0.395   0.397   0.354   0.345   0.342   0.361   0.365   0.348   0.351   0.347   0.355   0.354   0.335   0.352   0.349   0.351   0.347   0.365   0.374   0.340   0.310   0.346   0.362   0.377   0.372   0.391   0.390   0.359   0.373   0.386   0.402   0.376
    42.85    0.390   0.374   0.384   0.391   0.362   0.351   0.349   0.363   0.367   0.337   0.339   0.352   0.353   0.362   0.353   0.354   0.332   0.347   0.353   0.345   0.352   0.353   0.337   0.337   0.342   0.362   0.368   0.378   0.395   0.390   0.372   0.381   0.396   0.379   0.373
    38.20    0.383   0.386   0.374   0.400   0.366   0.366   0.354   0.361   0.362   0.338   0.341   0.337   0.367   0.368   0.364   0.371   0.349   0.334   0.327   0.339   0.350   0.355   0.357   0.341   0.347   0.371   0.374   0.379   0.385   0.358   0.365   0.383   0.387   0.373   0.382
    33.55    0.410   0.409   0.387   0.380   0.374   0.370   0.352   0.361   0.358   0.338   0.342   0.357   0.379   0.376   0.370   0.343   0.353   0.351   0.346   0.345   0.343   0.358   0.343   0.354   0.348   0.360   0.372   0.377   0.367   0.362   0.361   0.374   0.365   0.358   0.356
    28.90    0.382   0.381   0.383   0.345   0.384   0.373   0.365   0.353   0.364   0.347   0.357   0.362   0.370   0.362   0.380   0.380   0.365   0.349   0.346   0.355   0.349   0.349   0.341   0.358   0.355   0.358   0.363   0.361   0.358   0.362   0.357   0.359   0.352   0.341   0.346
    24.25    0.385   0.375   0.387   0.374   0.363   0.368   0.370   0.375   0.377   0.355   0.362   0.351   0.373   0.382   0.353   0.363   0.353   0.343   0.350   0.329   0.351   0.354   0.352   0.368   0.366   0.372   0.357   0.373   0.353   0.364   0.361   0.339   0.335   0.322   0.346
    19.60    0.380   0.389   0.368   0.367   0.367   0.368   0.339   0.363   0.343   0.320   0.344   0.350   0.363   0.373   0.358   0.345   0.327   0.353   0.359   0.357   0.349   0.350   0.353   0.356   0.368   0.360   0.339   0.349   0.350   0.354   0.336   0.325   0.316   0.327   0.331
    14.95    0.368   0.373   0.372   0.387   0.379   0.352   0.341   0.363   0.345   0.320   0.319   0.330   0.358   0.372   0.362   0.342   0.318   0.339   0.346   0.351   0.341   0.364   0.367   0.364   0.359   0.360   0.342   0.352   0.357   0.360   0.339   0.311   0.316   0.327   0.340
    10.30    0.373   0.374   0.383   0.377   0.383   0.369   0.368   0.347   0.344   0.343   0.322   0.337   0.351   0.334   0.357   0.367   0.351   0.324   0.359   0.348   0.350   0.366   0.379   0.366   0.354   0.342   0.356   0.356   0.364   0.353   0.354   0.342   0.329   0.338   0.337
     5.65    0.369   0.382   0.373   0.376   0.376   0.349   0.353   0.327   0.337   0.343   0.329   0.331   0.327   0.340   0.349   0.368   0.349   0.343   0.368   0.355   0.368   0.374   0.382   0.367   0.366   0.362   0.362   0.366   0.377   0.364   0.345   0.358   0.358   0.350   0.336
     1.00    0.347   0.354   0.354   0.365   0.350   0.354   0.340   0.333   0.337   0.362   0.368   0.330   0.322   0.331   0.350   0.367   0.372   0.365   0.374   0.375   0.371   0.371   0.361   0.370   0.362   0.364   0.366   0.367   0.366   0.369   0.357   0.356   0.363   0.355   0.361

   Height   Standard deviation at grid points for the w component:
   168.40    0.219   0.217   0.211   0.209   0.213   0.219   0.222   0.212   0.212   0.215   0.211   0.214   0.221   0.220   0.207   0.215   0.218   0.218   0.226   0.223   0.228   0.233   0.223   0.219   0.219   0.220   0.221   0.222   0.214   0.227   0.223   0.220   0.218   0.231   0.235
   163.75    0.221   0.214   0.221   0.218   0.210   0.213   0.215   0.214   0.212   0.214   0.217   0.209   0.218   0.217   0.213   0.213   0.217   0.229   0.229   0.232   0.225   0.227   0.233   0.226   0.223   0.223   0.229   0.222   0.218   0.221   0.222   0.221   0.229   0.234   0.230
   159.10    0.220   0.226   0.220   0.219   0.214   0.215   0.220   0.217   0.219   0.222   0.218   0.209   0.219   0.227   0.221   0.218   0.215   0.220   0.225   0.227   0.224   0.228   0.226   0.228   0.229   0.224   0.230   0.223   0.215   0.217   0.219   0.217   0.230   0.236   0.232
   154.45    0.225   0.223   0.217   0.220   0.222   0.218   0.224   0.228   0.222   0.215   0.214   0.212   0.219   0.219   0.219   0.213   0.218   0.215   0.228   0.215   0.219   0.219   0.223   0.225   0.217   0.222   0.224   0.213   0.220   0.218   0.205   0.218   0.230   0.235   0.238
   149.80    0.222   0.219   0.213   0.220   0.217   0.220   0.218   0.217   0.231   0.225   0.219   0.221   0.213   0.214   0.223   0.224   0.225   0.224   0.226   0.210   0.215   0.212   0.221   0.225   0.227   0.217   0.210   0.217   0.219   0.216   0.213   0.215   0.222   0.223   0.222
   145.15    0.219   0.216   0.215   0.221   0.217   0.217   0.219   0.219   0.218   0.223   0.222   0.217   0.219   0.226   0.221   0.228   0.228   0.223   0.221   0.215   0.209   0.213   0.209   0.213   0.222   0.223   0.211   0.209   0.217   0.212   0.216   0.218   0.222   0.219   0.221
   140.50    0.213   0.220   0.219   0.222   0.217   0.217   0.221   0.219   0.222   0.220   0.213   0.221   0.219   0.225   0.215   0.228   0.232   0.225   0.218   0.226   0.208   0.206   0.214   0.220   0.226   0.223   0.215   0.215   0.217   0.211   0.213   0.218   0.213   0.223   0.219
   135.85    0.215   0.221   0.227   0.218   0.217   0.216   0.216   0.213   0.217   0.210   0.214   0.223   0.224   0.217   0.218   0.223   0.224   0.228   0.225   0.229   0.222   0.217   0.217   0.224   0.226   0.224   0.214   0.222   0.208   0.211   0.216   0.217   0.210   0.215   0.217
   131.20    0.220   0.231   0.223   0.214   0.211   0.217   0.219   0.223   0.210   0.220   0.218   0.220   0.220   0.213   0.216   0.225   0.224   0.221   0.220   0.223   0.218   0.220   0.233   0.227   0.226   0.217   0.223   0.228   0.223   0.216   0.214   0.214   0.220   0.218   0.222
   126.55    0.227   0.225   0.221   0.227   0.228   0.213   0.226   0.216   0.222   0.227   0.228   0.233   0.222   0.216   0.224   0.224   0.230   0.228   0.220   0.219   0.226   0.226   0.227   0.229   0.228   0.221   0.218   0.225   0.222   0.214   0.209   0.209   0.218   0.223   0.212
   121.90    0.219   0.221   0.225   0.220   0.229   0.222   0.224   0.214   0.228   0.229   0.233   0.225   0.223   0.227   0.219   0.225   0.225   0.224   0.218   0.214   0.222   0.234   0.228   0.235   0.230   0.221   0.226   0.228   0.231   0.232   0.226   0.215   0.214   0.214   0.209
   117.25    0.220   0.220   0.224   0.223   0.240   0.229   0.230   0.225   0.224   0.230   0.227   0.217   0.218   0.211   0.226   0.228   0.228   0.221   0.217   0.214   0.224   0.230   0.235   0.235   0.232   0.228   0.218   0.223   0.220   0.218   0.225   0.221   0.222   0.207   0.208
   112.60    0.212   0.217   0.212   0.218   0.229   0.229   0.227   0.225   0.229   0.236   0.222   0.219   0.221   0.212   0.222   0.226   0.227   0.221   0.222   0.226   0.219   0.224   0.231   0.240   0.230   0.222   0.214   0.212   0.222   0.215   0.219   0.216   0.219   0.219   0.207
   107.95    0.212   0.214   0.218   0.223   0.228   0.224   0.228   0.217   0.226   0.232   0.230   0.228   0.216   0.214   0.219   0.226   0.224   0.221   0.219   0.219   0.230   0.222   0.231   0.228   0.228   0.227   0.220   0.222   0.228   0.216   0.209   0.215   0.213   0.217   0.217
   103.30    0.216   0.224   0.225   0.231   0.234   0.228   0.231   0.219   0.228   0.224   0.226   0.222   0.220   0.219   0.218   0.223   0.219   0.221   0.221   0.225   0.225   0.227   0.218   0.223   0.229   0.222   0.213   0.211   0.209   0.215   0.211   0.208   0.210   0.222   0.228
    98.65    0.222   0.220   0.223   0.218   0.231   0.225   0.231   0.228   0.222   0.222   0.224   0.225   0.229   0.228   0.225   0.223   0.215   0.218   0.216   0.225   0.225   0.217   0.208   0.218   0.218   0.219   0.221   0.213   0.216   0.217   0.213   0.207   0.218   0.223   0.230
    94.00    0.222   0.229   0.211   0.212   0.224   0.232   0.231   0.227   0.219   0.213   0.225   0.221   0.233   0.228   0.224   0.223   0.226   0.227   0.227   0.229   0.217   0.215   0.208   0.216   0.216   0.208   0.218   0.221   0.216   0.221   0.223   0.222   0.220   0.217   0.225
    89.35    0.221   0.214   0.224   0.219   0.222   0.232   0.227   0.229   0.224   0.232   0.232   0.238   0.233   0.236   0.234   0.230   0.227   0.229   0.221   0.228   0.221   0.212   0.219   0.216   0.216   0.207   0.212   0.214   0.217   0.222   0.225   0.225   0.224   0.230   0.220
    84.70    0.222   0.218   0.224   0.228   0.223   0.222   0.233   0.224   0.221   0.235   0.228   0.222   0.230   0.226   0.232   0.228   0.228   0.227   0.217   0.217   0.217   0.216   0.214   0.215   0.211   0.215   0.220   0.212   0.220   0.220   0.221   0.224   0.227   0.229   0.228
    80.05    0.226   0.221   0.220   0.227   0.222   0.209   0.227   0.221   0.215   0.223   0.233   0.224   0.227   0.226   0.228   0.224   0.221   0.215   0.213   0.212   0.220   0.222   0.213   0.215   0.209   0.218   0.215   0.210   0.217   0.218   0.222   0.226   0.234   0.229   0.230
    75.40    0.234   0.226   0.226   0.225   0.223   0.220   0.215   0.216   0.217   0.218   0.222   0.232   0.228   0.227   0.230   0.221   0.215   0.213   0.220   0.219   0.213   0.214   0.206   0.210   0.207   0.217   0.214   0.221   0.214   0.216   0.221   0.222   0.226   0.225   0.230
    70.75    0.234   0.233   0.223   0.223   0.222   0.224   0.221   0.213   0.220   0.222   0.228   0.227   0.224   0.230   0.216   0.220   0.216   0.218   0.221   0.219   0.216   0.214   0.221   0.211   0.217   0.208   0.224   0.217   0.213   0.224   0.223   0.219   0.222   0.227   0.225
    66.10    0.235   0.239   0.234   0.230   0.223   0.222   0.217   0.217   0.228   0.224   0.218   0.224   0.227   0.220   0.218   0.216   0.219   0.221   0.214   0.223   0.214   0.214   0.216   0.219   0.214   0.213   0.221   0.220   0.216   0.221   0.227   0.223   0.221   0.231   0.232
    61.45    0.240   0.226   0.229   0.229   0.227   0.221   0.221   0.215   0.219   0.220   0.224   0.223   0.231   0.230   0.219   0.219   0.223   0.224   0.222   0.227   0.212   0.216   0.218   0.215   0.213   0.210   0.212   0.223   0.229   0.220   0.229   0.229   0.222   0.235   0.230
    56.80    0.243   0.237   0.226   0.224   0.225   0.224   0.223   0.223   0.221   0.214   0.230   0.224   0.222   0.230   0.220   0.216   0.217   0.216   0.212   0.216   0.223   0.223   0.223   0.220   0.219   0.203   0.210   0.214   0.224   0.216   0.231   0.220   0.230   0.238   0.236
    52.15    0.232   0.237   0.237   0.227   0.223   0.216   0.209   0.214   0.225   0.221   0.222   0.225   0.215   0.222   0.223   0.217   0.216   0.215   0.222   0.217   0.223   0.221   0.221   0.219   0.222   0.214   0.212   0.214   0.220   0.224   0.232   0.227   0.228   0.232   0.226
    47.50    0.231   0.229   0.234   0.227   0.219   0.222   0.215   0.216   0.221   0.219   0.218   0.221   0.217   0.214   0.222   0.223   0.216   0.215   0.216   0.217   0.217   0.227   0.218   0.225   0.222   0.225   0.217   0.213   0.217   0.221   0.226   0.221   0.229   0.230   0.225
    42.85    0.223   0.223   0.229   0.228   0.224   0.219   0.220   0.214   0.215   0.212   0.209   0.217   0.219   0.219   0.223   0.225   0.231   0.222   0.218   0.216   0.218   0.220   0.219   0.221   0.224   0.220   0.229   0.218   0.222   0.219   0.218   0.213   0.221   0.221   0.225
    38.20    0.218   0.219   0.225   0.234   0.215   0.225   0.219   0.213   0.212   0.213   0.210   0.218   0.223   0.220   0.219   0.219   0.222   0.225   0.214   0.216   0.211   0.219   0.215   0.225   0.225   0.231   0.230   0.226   0.227   0.223   0.226   0.224   0.214   0.214   0.219
    33.55    0.219   0.224   0.225   0.226   0.225   0.217   0.215   0.206   0.209   0.208   0.212   0.218   0.228   0.230   0.222   0.223   0.234   0.224   0.213   0.216   0.214   0.218   0.219   0.224   0.233   0.227   0.235   0.236   0.229   0.224   0.224   0.211   0.208   0.209   0.214
    28.90    0.219   0.221   0.222   0.225   0.215   0.224   0.213   0.207   0.216   0.216   0.221   0.224   0.222   0.226   0.223   0.229   0.223   0.224   0.222   0.221   0.217   0.221   0.223   0.239   0.240   0.235   0.229   0.236   0.225   0.233   0.220   0.207   0.210   0.214   0.206
    24.25    0.221   0.219   0.218   0.216   0.215   0.222   0.223   0.216   0.217   0.216   0.223   0.219   0.221   0.220   0.224   0.231   0.227   0.225   0.235   0.227   0.224   0.226   0.235   0.233   0.227   0.229   0.233   0.230   0.226   0.221   0.215   0.208   0.208   0.216   0.216
    19.60    0.212   0.219   0.210   0.217   0.218   0.219   0.217   0.214   0.220   0.228   0.227   0.228   0.222   0.222   0.220   0.233   0.233   0.227   0.231   0.230   0.220   0.225   0.237   0.237   0.223   0.223   0.224   0.222   0.225   0.221   0.212   0.213   0.208   0.213   0.212
    14.95    0.215   0.209   0.207   0.214   0.223   0.226   0.222   0.218   0.214   0.231   0.232   0.228   0.221   0.228   0.240   0.238   0.237   0.230   0.223   0.221   0.228   0.224   0.233   0.238   0.234   0.227   0.230   0.225   0.227   0.221   0.219   0.209   0.208   0.211   0.211
    10.30    0.212   0.206   0.210   0.221   0.217   0.227   0.226   0.218   0.218   0.220   0.225   0.225   0.230   0.224   0.233   0.237   0.230   0.232   0.227   0.224   0.221   0.224   0.228   0.237   0.234   0.228   0.226   0.227   0.230   0.224   0.218   0.217   0.217   0.220   0.217
     5.65    0.210   0.215   0.213   0.214   0.212   0.218   0.226   0.221   0.224   0.227   0.227   0.232   0.235   0.230   0.225   0.231   0.229   0.233   0.228   0.219   0.220   0.220   0.233   0.235   0.238   0.229   0.221   0.221   0.221   0.230   0.227   0.220   0.219   0.224   0.222
     1.00    0.224   0.218   0.211   0.215   0.212   0.215   0.217   0.221   0.223   0.225   0.227   0.227   0.228   0.224   0.222   0.233   0.227   0.222   0.233   0.225   0.233   0.232   0.227   0.233   0.228   0.216   0.222   0.221   0.217   0.225   0.225   0.221   0.220   0.221   0.214

   Mean standard deviation across all grid points:
      u component:    0.481 m/s
      v component:    0.359 m/s
      w component:    0.221 m/s


U-component (X) statistics from the interpolated hub point:

   Mean =   9.9913 m/s
   TI   =   4.4329 %


Processing complete.  6322.5 CPU seconds used.
