
This summary file was generated by TurbSim (from OpenFAST-v3.5.3) on 20-Apr-2025 at 12:29:54.


Runtime Options:

 376932526  Random seed #1
    RANLUX  Type of random number generator
         F  Output binary HH turbulence parameters?
         F  Output formatted turbulence parameters?
         F  Output AeroDyn HH files?
         T  Output AeroDyn FF files?
         F  Output BLADED FF files?
         F  Output tower data?
         F  Output HAWC FF files?
         F  Output formatted FF files?
         T  Output coherent turbulence time step file?
 0 -  NONE  IEC turbulence models scaled to exact specified standard deviation


Turbine/Model Specifications:

        37  Vertical grid-point matrix dimension
        35  Horizontal grid-point matrix dimension
     0.250  Time step [seconds]
   900.000  Analysis time [seconds]
   900.000  Usable output time [seconds]
    89.350  Hub height [m]
   167.400  Grid height [m]
   158.100  Grid width [m]
     0.000  Vertical flow angle [degrees]
     0.000  Horizontal flow angle [degrees]


Meteorological Boundary Conditions:

    TIMESR  User-input time series spectral model
       N/A  IEC standard
       N/A  IEC turbulence characteristic
       N/A  IEC turbulence type
       N/A  IEC Extreme Turbulence Model (ETM) "c" parameter [m/s]
       PL   Wind profile type
    90.000  Reference height [m]
    10.000  Reference wind speed [m/s]
       N/A  Jet height [m]
     0.120  Power law exponent
     0.030  Surface roughness length [m]


Non-IEC Meteorological Boundary Conditions:

    45.000  Site latitude [degrees]
     0.050  Gradient Richardson number
     0.480  Friction or shear velocity [m/s]
       N/A  Mixing layer depth [m]
       N/A  Mean hub u'w' Reynolds stress
       N/A  Mean hub u'v' Reynolds stress
       N/A  Mean hub v'w' Reynolds stress


Spatial Coherence Models:

       IEC  u-component coherence model
       IEC  v-component coherence model
       IEC  w-component coherence model
(   12.000, 0.353E-03)  u-component coherence parameters
(   12.000, 0.353E-03)  v-component coherence parameters
(   12.000, 0.353E-03)  w-component coherence parameters
       N/A  Coherence exponent


Coherent Turbulence Scaling Parameters:

.\EventData
            Name of the path containing the coherent turbulence data files
       les  Type of coherent turbulence data files
     1.000  Disturbance scale (ratio of wave height to rotor diameter)
     0.500  Fractional location of tower centerline from right
     0.500  Fractional location of hub height from the bottom of the dataset
    30.000  Minimum start time for coherent structures [seconds]


Profiles from User-Defined Time-Series Input:

  Height   Wind Speed   Horizontal Angle   Vertical Angle
   (m)        (m/s)          (deg)              (deg)    
  ------   ----------   ----------------   --------------
   94.00      10.00          -0.63                0.00


You have requested that the following file(s) be generated:

   /kfs3/scratch/agupta/Projects/RL_Incubator/FinalRuns_Veer/Seed4/./FFSim_Seed4/Cond00_v10.0_PL0.12_TI3.0/Case3_wdirp06/Seed_6/TurbSim/HighT18.bts (AeroDyn/TurbSim full-field wind file)


Turbulence Simulation Scaling Parameter Summary:

   Turbulence model used                            =  User-input time series
   Gradient Richardson number                       =    0.050
   Monin-Obukhov (M-O) z/L parameter                =    0.067
   Monin-Obukhov (M-O) length scale                 = 1340.250 m
   Mean wind speed at hub height                    =    9.991 m/s

   Wind profile type                                =  Power law
   Power law exponent                               =    0.120
   Mean shear across rotor disk                     =    0.019 (m/s)/m
   Assumed rotor diameter                           =  158.100 m
   Surface roughness length                         =    0.030 m

   Nyquist frequency of turbulent wind field        =    2.000 Hz

   Number of time steps in the FFT                  =     3600
   Number of time steps output                      =     3600
   Number of points simulated                       =     1296


Mean Flow Angles:

   Vertical   =   0.0 degrees
   Horizontal =   0.0 degrees

Mean Wind Speed Profile:

   Height    Wind Speed   Horizontal Angle  Vertical Angle  U-comp (X)   V-comp (Y)   W-comp (Z)
     (m)        (m/s)         (degrees)       (degrees)       (m/s)        (m/s)        (m/s)   
   ------    ----------   ----------------  --------------  ----------   ----------   ----------
    168.4       10.78            0.00            0.00         10.78         0.00         0.00
    163.7       10.74            0.00            0.00         10.74         0.00         0.00
    159.1       10.71            0.00            0.00         10.71         0.00         0.00
    154.4       10.67            0.00            0.00         10.67         0.00         0.00
    149.8       10.63            0.00            0.00         10.63         0.00         0.00
    145.1       10.59            0.00            0.00         10.59         0.00         0.00
    140.5       10.55            0.00            0.00         10.55         0.00         0.00
    135.8       10.51            0.00            0.00         10.51         0.00         0.00
    131.2       10.46            0.00            0.00         10.46         0.00         0.00
    126.5       10.42            0.00            0.00         10.42         0.00         0.00
    121.9       10.37            0.00            0.00         10.37         0.00         0.00
    117.2       10.32            0.00            0.00         10.32         0.00         0.00
    112.6       10.27            0.00            0.00         10.27         0.00         0.00
    107.9       10.22            0.00            0.00         10.22         0.00         0.00
    103.3       10.17            0.00            0.00         10.17         0.00         0.00
     98.6       10.11            0.00            0.00         10.11         0.00         0.00
     94.0       10.05            0.00            0.00         10.05         0.00         0.00
     89.3        9.99            0.00            0.00          9.99         0.00         0.00
     84.7        9.93            0.00            0.00          9.93         0.00         0.00
     80.0        9.86            0.00            0.00          9.86         0.00         0.00
     75.4        9.79            0.00            0.00          9.79         0.00         0.00
     70.7        9.72            0.00            0.00          9.72         0.00         0.00
     66.1        9.64            0.00            0.00          9.64         0.00         0.00
     61.4        9.55            0.00            0.00          9.55         0.00         0.00
     56.8        9.46            0.00            0.00          9.46         0.00         0.00
     52.1        9.37            0.00            0.00          9.37         0.00         0.00
     47.5        9.26            0.00            0.00          9.26         0.00         0.00
     42.8        9.15            0.00            0.00          9.15         0.00         0.00
     38.2        9.02            0.00            0.00          9.02         0.00         0.00
     33.5        8.88            0.00            0.00          8.88         0.00         0.00
     28.9        8.73            0.00            0.00          8.73         0.00         0.00
     24.2        8.54            0.00            0.00          8.54         0.00         0.00
     19.6        8.33            0.00            0.00          8.33         0.00         0.00
     14.9        8.06            0.00            0.00          8.06         0.00         0.00
     10.3        7.71            0.00            0.00          7.71         0.00         0.00
      5.6        7.17            0.00            0.00          7.17         0.00         0.00
      1.0        5.83            0.00            0.00          5.83         0.00         0.00


Harvested Random Seeds after Generation of the Random Numbers:

     65026800 K 1
            0 K 2


Hub-Height Simulated Turbulence Statistical Summary:

   Type of Wind        Min (m/s)   Mean (m/s)    Max (m/s)  Sigma (m/s)       TI (%)
   ----------------    ---------   ----------    ---------  -----------       ------
   Longitudinal (u)         9.15         9.99        10.81        0.280        2.806
   Lateral (v)             -0.83         0.00         0.82        0.244        2.439
   Vertical (w)            -0.57        -0.00         0.55        0.146        1.459
   U component              9.15         9.99        10.81        0.280        2.806
   V component             -0.83         0.00         0.82        0.244        2.439
   W component             -0.57        -0.00         0.55        0.146        1.459
   Horizontal (U&V)         9.16         9.99        10.81        0.280        2.806
   Total                    9.16        10.00        10.81        0.280        2.805

                       Min Reynolds     Mean Reynolds    Max Reynolds    Correlation
   Product             Stress (m/s)^2   Stress (m/s)^2   Stress (m/s)^2  Coefficient
   ----------------    --------------   --------------   --------------  -----------
   u'w'                     -0.224            -0.003             0.234        -0.070
   u'v'                     -0.498            -0.007             0.412        -0.101
   v'w'                     -0.167             0.003             0.214         0.088


   Friction Velocity (Ustar)  =      0.054 m/s
   Maximum Instantaneous TKE  =      0.499 (m/s)^2
   Maximum Instantaneous CTKE =      0.249 (m/s)^2


Grid Point Variance Summary:

   Y-coord  -79.05  -74.40  -69.75  -65.10  -60.45  -55.80  -51.15  -46.50  -41.85  -37.20  -32.55  -27.90  -23.25  -18.60  -13.95   -9.30   -4.65    0.00    4.65    9.30   13.95   18.60   23.25   27.90   32.55   37.20   41.85   46.50   51.15   55.80   60.45   65.10   69.75   74.40   79.05

   Height   Standard deviation at grid points for the u component:
   168.40    0.283   0.271   0.265   0.266   0.246   0.247   0.250   0.270   0.274   0.275   0.255   0.263   0.269   0.264   0.278   0.263   0.268   0.271   0.269   0.277   0.287   0.289   0.285   0.298   0.282   0.283   0.292   0.297   0.304   0.291   0.279   0.282   0.280   0.266   0.261
   163.75    0.279   0.269   0.275   0.278   0.271   0.262   0.269   0.253   0.269   0.265   0.270   0.264   0.263   0.274   0.268   0.270   0.281   0.284   0.265   0.274   0.276   0.279   0.288   0.283   0.291   0.288   0.291   0.296   0.290   0.274   0.268   0.277   0.259   0.265   0.266
   159.10    0.305   0.297   0.297   0.278   0.283   0.276   0.273   0.277   0.282   0.273   0.288   0.275   0.281   0.279   0.290   0.271   0.272   0.275   0.273   0.266   0.270   0.275   0.283   0.292   0.286   0.281   0.280   0.285   0.278   0.265   0.262   0.266   0.276   0.289   0.296
   154.45    0.314   0.300   0.275   0.284   0.279   0.288   0.290   0.272   0.276   0.266   0.266   0.280   0.280   0.278   0.284   0.283   0.290   0.284   0.262   0.279   0.283   0.280   0.278   0.274   0.289   0.287   0.285   0.292   0.276   0.275   0.255   0.248   0.281   0.292   0.285
   149.80    0.318   0.314   0.292   0.284   0.289   0.287   0.288   0.251   0.272   0.256   0.280   0.279   0.282   0.274   0.273   0.286   0.291   0.285   0.272   0.275   0.282   0.294   0.286   0.294   0.300   0.287   0.287   0.280   0.285   0.272   0.264   0.264   0.284   0.272   0.273
   145.15    0.318   0.309   0.315   0.309   0.300   0.300   0.274   0.263   0.256   0.260   0.260   0.283   0.291   0.292   0.286   0.300   0.302   0.299   0.294   0.286   0.286   0.284   0.294   0.309   0.309   0.302   0.289   0.304   0.278   0.282   0.262   0.253   0.266   0.278   0.274
   140.50    0.302   0.311   0.306   0.300   0.307   0.287   0.287   0.261   0.266   0.268   0.287   0.286   0.293   0.290   0.309   0.309   0.305   0.322   0.316   0.317   0.319   0.300   0.292   0.302   0.303   0.300   0.297   0.289   0.278   0.277   0.270   0.256   0.258   0.261   0.266
   135.85    0.301   0.309   0.301   0.284   0.313   0.310   0.300   0.281   0.265   0.261   0.278   0.280   0.278   0.296   0.296   0.297   0.305   0.318   0.322   0.322   0.311   0.301   0.293   0.295   0.310   0.288   0.294   0.282   0.282   0.275   0.276   0.263   0.269   0.254   0.243
   131.20    0.309   0.324   0.308   0.309   0.303   0.290   0.286   0.282   0.288   0.296   0.289   0.304   0.293   0.298   0.300   0.298   0.308   0.309   0.315   0.318   0.301   0.289   0.293   0.301   0.298   0.295   0.283   0.269   0.261   0.258   0.258   0.259   0.259   0.260   0.243
   126.55    0.316   0.318   0.308   0.316   0.321   0.311   0.288   0.289   0.294   0.295   0.320   0.314   0.315   0.309   0.307   0.320   0.326   0.303   0.304   0.307   0.300   0.305   0.289   0.300   0.301   0.311   0.286   0.261   0.257   0.258   0.270   0.253   0.257   0.261   0.261
   121.90    0.320   0.307   0.316   0.323   0.322   0.319   0.306   0.307   0.305   0.301   0.314   0.322   0.323   0.317   0.315   0.310   0.311   0.306   0.317   0.315   0.317   0.289   0.303   0.302   0.315   0.300   0.288   0.287   0.272   0.264   0.272   0.264   0.251   0.250   0.256
   117.25    0.302   0.310   0.320   0.324   0.329   0.328   0.319   0.330   0.314   0.314   0.320   0.325   0.325   0.330   0.327   0.305   0.316   0.309   0.312   0.313   0.311   0.304   0.295   0.302   0.299   0.303   0.268   0.280   0.278   0.278   0.265   0.268   0.263   0.265   0.261
   112.60    0.298   0.295   0.313   0.328   0.331   0.314   0.322   0.330   0.311   0.313   0.329   0.309   0.311   0.316   0.321   0.308   0.304   0.300   0.299   0.302   0.309   0.291   0.297   0.294   0.297   0.303   0.278   0.276   0.273   0.279   0.267   0.242   0.243   0.250   0.261
   107.95    0.308   0.300   0.323   0.328   0.318   0.309   0.324   0.321   0.313   0.321   0.323   0.320   0.329   0.313   0.308   0.311   0.302   0.303   0.284   0.298   0.310   0.291   0.288   0.283   0.284   0.288   0.285   0.268   0.268   0.263   0.245   0.245   0.239   0.250   0.252
   103.30    0.316   0.312   0.311   0.312   0.305   0.309   0.313   0.321   0.302   0.315   0.330   0.324   0.336   0.299   0.301   0.308   0.303   0.293   0.285   0.295   0.284   0.276   0.272   0.272   0.280   0.288   0.281   0.270   0.267   0.265   0.242   0.247   0.253   0.264   0.263
    98.65    0.309   0.299   0.301   0.312   0.323   0.317   0.318   0.306   0.307   0.317   0.326   0.324   0.330   0.309   0.312   0.314   0.306   0.314   0.293   0.283   0.279   0.267   0.265   0.256   0.272   0.286   0.282   0.286   0.262   0.268   0.247   0.246   0.252   0.254   0.270
    94.00    0.306   0.303   0.304   0.308   0.327   0.314   0.318   0.306   0.326   0.308   0.308   0.316   0.320   0.316   0.313   0.307   0.311   0.293   0.285   0.268   0.265   0.260   0.263   0.258   0.266   0.270   0.285   0.269   0.269   0.268   0.253   0.245   0.241   0.250   0.258
    89.35    0.278   0.287   0.293   0.305   0.301   0.302   0.303   0.301   0.306   0.317   0.297   0.283   0.306   0.304   0.312   0.294   0.285   0.280   0.284   0.262   0.269   0.264   0.275   0.280   0.262   0.279   0.278   0.273   0.266   0.272   0.261   0.261   0.254   0.263   0.254
    84.70    0.276   0.271   0.274   0.301   0.298   0.294   0.297   0.284   0.298   0.304   0.301   0.295   0.288   0.299   0.300   0.285   0.291   0.284   0.270   0.280   0.283   0.268   0.276   0.287   0.294   0.286   0.293   0.271   0.254   0.285   0.280   0.271   0.252   0.252   0.260
    80.05    0.276   0.284   0.284   0.289   0.312   0.308   0.289   0.287   0.274   0.296   0.306   0.304   0.290   0.293   0.298   0.296   0.296   0.287   0.274   0.279   0.289   0.288   0.274   0.281   0.298   0.301   0.291   0.280   0.280   0.293   0.293   0.271   0.235   0.233   0.241
    75.40    0.289   0.291   0.299   0.296   0.292   0.289   0.291   0.275   0.277   0.291   0.288   0.292   0.296   0.291   0.284   0.287   0.299   0.292   0.298   0.304   0.289   0.288   0.282   0.283   0.292   0.300   0.293   0.289   0.294   0.297   0.286   0.261   0.245   0.231   0.225
    70.75    0.315   0.321   0.310   0.286   0.291   0.290   0.303   0.280   0.273   0.283   0.296   0.286   0.303   0.302   0.293   0.284   0.310   0.300   0.308   0.320   0.293   0.295   0.294   0.279   0.286   0.301   0.309   0.297   0.291   0.281   0.276   0.263   0.260   0.231   0.231
    66.10    0.326   0.324   0.317   0.300   0.288   0.278   0.283   0.290   0.280   0.292   0.299   0.306   0.305   0.308   0.307   0.307   0.323   0.316   0.323   0.316   0.314   0.310   0.293   0.287   0.282   0.296   0.312   0.297   0.275   0.278   0.258   0.258   0.252   0.230   0.240
    61.45    0.337   0.317   0.325   0.327   0.300   0.263   0.271   0.285   0.286   0.280   0.297   0.305   0.309   0.304   0.306   0.300   0.304   0.334   0.329   0.337   0.313   0.311   0.293   0.290   0.289   0.284   0.305   0.302   0.282   0.263   0.260   0.251   0.238   0.253   0.246
    56.80    0.338   0.319   0.323   0.323   0.302   0.264   0.281   0.277   0.295   0.302   0.297   0.285   0.297   0.288   0.306   0.306   0.304   0.324   0.329   0.342   0.315   0.324   0.314   0.316   0.313   0.309   0.307   0.302   0.287   0.281   0.261   0.230   0.234   0.240   0.257
    52.15    0.332   0.322   0.316   0.319   0.293   0.282   0.294   0.282   0.273   0.290   0.296   0.292   0.286   0.287   0.293   0.292   0.296   0.319   0.334   0.343   0.328   0.327   0.324   0.322   0.329   0.315   0.316   0.305   0.293   0.274   0.259   0.239   0.242   0.250   0.255
    47.50    0.332   0.318   0.305   0.308   0.293   0.303   0.312   0.303   0.277   0.287   0.287   0.289   0.292   0.294   0.299   0.301   0.302   0.331   0.348   0.349   0.346   0.341   0.322   0.321   0.319   0.311   0.324   0.305   0.287   0.270   0.264   0.244   0.235   0.243   0.234
    42.85    0.321   0.330   0.316   0.297   0.304   0.298   0.303   0.310   0.276   0.267   0.267   0.285   0.292   0.305   0.299   0.313   0.308   0.341   0.349   0.352   0.348   0.315   0.310   0.320   0.322   0.319   0.318   0.317   0.285   0.268   0.264   0.243   0.231   0.233   0.239
    38.20    0.301   0.317   0.322   0.298   0.298   0.306   0.308   0.312   0.277   0.264   0.255   0.279   0.293   0.309   0.311   0.300   0.307   0.326   0.340   0.334   0.325   0.317   0.297   0.306   0.313   0.322   0.323   0.310   0.293   0.275   0.266   0.244   0.225   0.235   0.250
    33.55    0.291   0.308   0.304   0.299   0.311   0.309   0.307   0.289   0.281   0.261   0.258   0.276   0.279   0.294   0.305   0.306   0.309   0.329   0.330   0.323   0.310   0.292   0.290   0.285   0.300   0.303   0.302   0.309   0.308   0.297   0.271   0.246   0.226   0.220   0.234
    28.90    0.299   0.307   0.292   0.291   0.311   0.319   0.300   0.290   0.265   0.274   0.270   0.285   0.293   0.296   0.326   0.326   0.311   0.307   0.316   0.320   0.307   0.304   0.291   0.298   0.283   0.302   0.305   0.298   0.304   0.290   0.277   0.240   0.225   0.234   0.222
    24.25    0.294   0.303   0.299   0.314   0.307   0.323   0.315   0.303   0.281   0.277   0.273   0.301   0.309   0.326   0.331   0.323   0.314   0.317   0.307   0.305   0.302   0.315   0.290   0.297   0.290   0.303   0.308   0.282   0.286   0.292   0.264   0.235   0.229   0.240   0.234
    19.60    0.296   0.291   0.288   0.291   0.309   0.315   0.312   0.297   0.290   0.302   0.292   0.317   0.302   0.323   0.322   0.317   0.317   0.332   0.318   0.315   0.332   0.306   0.302   0.301   0.290   0.297   0.313   0.304   0.301   0.287   0.271   0.249   0.250   0.248   0.245
    14.95    0.289   0.275   0.292   0.288   0.287   0.292   0.317   0.297   0.301   0.298   0.309   0.332   0.318   0.321   0.320   0.313   0.327   0.323   0.317   0.308   0.324   0.318   0.306   0.302   0.303   0.313   0.332   0.322   0.290   0.304   0.266   0.248   0.259   0.256   0.243
    10.30    0.289   0.259   0.279   0.280   0.277   0.274   0.292   0.299   0.285   0.284   0.302   0.328   0.326   0.338   0.352   0.339   0.330   0.324   0.322   0.313   0.322   0.312   0.306   0.316   0.314   0.317   0.309   0.306   0.307   0.300   0.281   0.268   0.262   0.263   0.253
     5.65    0.299   0.264   0.278   0.274   0.262   0.264   0.286   0.292   0.291   0.292   0.299   0.307   0.323   0.336   0.321   0.331   0.323   0.315   0.312   0.309   0.315   0.324   0.309   0.308   0.314   0.313   0.311   0.310   0.293   0.305   0.303   0.284   0.272   0.276   0.262
     1.00    0.287   0.283   0.280   0.281   0.269   0.278   0.300   0.310   0.303   0.289   0.283   0.286   0.302   0.315   0.320   0.318   0.320   0.302   0.319   0.303   0.316   0.340   0.324   0.323   0.299   0.298   0.297   0.296   0.301   0.300   0.285   0.293   0.267   0.257   0.244

   Height   Standard deviation at grid points for the v component:
   168.40    0.214   0.217   0.218   0.228   0.235   0.241   0.258   0.262   0.239   0.230   0.224   0.225   0.232   0.224   0.220   0.231   0.228   0.230   0.232   0.234   0.239   0.229   0.233   0.230   0.221   0.214   0.199   0.209   0.216   0.218   0.210   0.228   0.243   0.245   0.246
   163.75    0.219   0.223   0.216   0.228   0.225   0.230   0.246   0.242   0.243   0.232   0.226   0.226   0.222   0.239   0.246   0.234   0.232   0.246   0.239   0.244   0.235   0.236   0.222   0.226   0.209   0.214   0.206   0.211   0.207   0.215   0.216   0.229   0.244   0.237   0.243
   159.10    0.221   0.228   0.215   0.207   0.220   0.217   0.223   0.228   0.227   0.227   0.221   0.225   0.230   0.238   0.242   0.245   0.235   0.239   0.245   0.254   0.244   0.241   0.227   0.243   0.227   0.221   0.223   0.220   0.216   0.221   0.219   0.220   0.247   0.246   0.240
   154.45    0.218   0.221   0.214   0.229   0.221   0.217   0.215   0.224   0.235   0.231   0.226   0.225   0.250   0.260   0.231   0.242   0.244   0.234   0.242   0.250   0.245   0.245   0.239   0.237   0.243   0.242   0.231   0.241   0.235   0.235   0.233   0.223   0.248   0.229   0.239
   149.80    0.224   0.221   0.228   0.234   0.224   0.227   0.223   0.240   0.233   0.230   0.238   0.238   0.250   0.257   0.236   0.247   0.246   0.240   0.248   0.260   0.245   0.252   0.249   0.255   0.241   0.244   0.242   0.246   0.245   0.242   0.243   0.232   0.239   0.238   0.230
   145.15    0.238   0.237   0.225   0.237   0.215   0.214   0.231   0.234   0.233   0.243   0.240   0.249   0.252   0.238   0.242   0.242   0.247   0.247   0.244   0.250   0.239   0.249   0.259   0.252   0.241   0.246   0.249   0.248   0.251   0.257   0.242   0.235   0.235   0.232   0.242
   140.50    0.233   0.232   0.241   0.230   0.216   0.221   0.232   0.233   0.248   0.246   0.258   0.249   0.244   0.251   0.265   0.255   0.256   0.247   0.243   0.252   0.251   0.244   0.245   0.250   0.249   0.257   0.250   0.259   0.256   0.253   0.251   0.234   0.251   0.247   0.243
   135.85    0.227   0.240   0.238   0.227   0.222   0.230   0.227   0.248   0.252   0.263   0.249   0.247   0.251   0.260   0.274   0.281   0.280   0.266   0.256   0.266   0.249   0.257   0.265   0.254   0.245   0.262   0.251   0.257   0.264   0.259   0.255   0.241   0.250   0.248   0.251
   131.20    0.221   0.219   0.227   0.226   0.238   0.243   0.238   0.249   0.251   0.260   0.257   0.257   0.256   0.257   0.265   0.274   0.282   0.280   0.265   0.265   0.262   0.260   0.264   0.271   0.260   0.259   0.251   0.255   0.258   0.263   0.262   0.246   0.234   0.232   0.236
   126.55    0.213   0.222   0.232   0.237   0.242   0.259   0.246   0.240   0.246   0.261   0.260   0.255   0.256   0.281   0.274   0.267   0.273   0.269   0.276   0.268   0.270   0.266   0.266   0.267   0.251   0.247   0.254   0.259   0.257   0.262   0.254   0.243   0.245   0.235   0.220
   121.90    0.238   0.223   0.223   0.242   0.253   0.255   0.257   0.242   0.250   0.254   0.252   0.251   0.268   0.272   0.278   0.259   0.262   0.270   0.268   0.275   0.275   0.275   0.271   0.260   0.241   0.247   0.251   0.247   0.248   0.246   0.244   0.239   0.232   0.224   0.218
   117.25    0.245   0.235   0.235   0.229   0.246   0.243   0.254   0.238   0.242   0.244   0.243   0.264   0.267   0.264   0.278   0.259   0.262   0.263   0.271   0.271   0.267   0.258   0.245   0.246   0.241   0.241   0.255   0.243   0.238   0.235   0.238   0.232   0.217   0.214   0.225
   112.60    0.234   0.237   0.242   0.246   0.242   0.246   0.246   0.241   0.236   0.240   0.235   0.245   0.253   0.259   0.264   0.258   0.250   0.253   0.260   0.260   0.244   0.241   0.233   0.226   0.225   0.228   0.241   0.228   0.226   0.223   0.216   0.221   0.217   0.218   0.210
   107.95    0.255   0.246   0.256   0.252   0.248   0.247   0.248   0.233   0.251   0.250   0.241   0.244   0.258   0.255   0.251   0.248   0.246   0.247   0.250   0.250   0.240   0.233   0.220   0.213   0.217   0.228   0.232   0.224   0.217   0.222   0.219   0.214   0.215   0.213   0.206
   103.30    0.255   0.249   0.257   0.258   0.252   0.249   0.231   0.240   0.245   0.244   0.240   0.253   0.254   0.251   0.247   0.249   0.248   0.250   0.242   0.248   0.241   0.224   0.220   0.226   0.213   0.206   0.227   0.236   0.223   0.220   0.220   0.221   0.212   0.209   0.214
    98.65    0.256   0.251   0.254   0.261   0.241   0.246   0.236   0.240   0.235   0.238   0.227   0.239   0.246   0.259   0.253   0.253   0.252   0.255   0.241   0.249   0.239   0.232   0.222   0.214   0.204   0.212   0.212   0.221   0.221   0.224   0.230   0.221   0.214   0.212   0.223
    94.00    0.249   0.241   0.248   0.253   0.240   0.243   0.241   0.236   0.245   0.237   0.232   0.223   0.235   0.249   0.247   0.254   0.258   0.250   0.246   0.246   0.228   0.233   0.219   0.207   0.204   0.212   0.211   0.215   0.226   0.230   0.218   0.217   0.211   0.211   0.219
    89.35    0.263   0.244   0.237   0.245   0.242   0.249   0.235   0.245   0.226   0.228   0.230   0.223   0.237   0.239   0.243   0.243   0.241   0.244   0.232   0.251   0.235   0.224   0.214   0.210   0.208   0.205   0.213   0.209   0.211   0.233   0.232   0.217   0.214   0.209   0.215
    84.70    0.274   0.255   0.245   0.238   0.246   0.260   0.260   0.261   0.245   0.240   0.239   0.237   0.252   0.242   0.241   0.242   0.245   0.235   0.234   0.247   0.239   0.226   0.218   0.216   0.208   0.200   0.200   0.214   0.220   0.224   0.214   0.219   0.219   0.214   0.213
    80.05    0.275   0.258   0.262   0.255   0.259   0.255   0.265   0.272   0.261   0.259   0.248   0.238   0.237   0.233   0.240   0.241   0.243   0.234   0.234   0.243   0.238   0.238   0.236   0.223   0.212   0.206   0.207   0.210   0.212   0.228   0.215   0.225   0.215   0.213   0.209
    75.40    0.263   0.245   0.255   0.249   0.262   0.261   0.265   0.266   0.255   0.251   0.247   0.234   0.247   0.246   0.236   0.236   0.232   0.226   0.230   0.247   0.245   0.239   0.236   0.220   0.212   0.215   0.234   0.233   0.224   0.222   0.218   0.219   0.221   0.212   0.204
    70.75    0.271   0.266   0.262   0.251   0.265   0.261   0.253   0.245   0.241   0.251   0.250   0.244   0.246   0.249   0.238   0.229   0.209   0.219   0.232   0.242   0.241   0.240   0.239   0.217   0.216   0.223   0.233   0.235   0.242   0.241   0.221   0.223   0.208   0.211   0.206
    66.10    0.269   0.270   0.256   0.259   0.257   0.249   0.251   0.236   0.252   0.246   0.252   0.255   0.244   0.246   0.243   0.230   0.207   0.209   0.224   0.240   0.243   0.244   0.238   0.228   0.223   0.227   0.228   0.222   0.225   0.232   0.234   0.219   0.218   0.207   0.199
    61.45    0.260   0.247   0.247   0.252   0.247   0.245   0.247   0.241   0.251   0.253   0.247   0.247   0.247   0.230   0.232   0.236   0.231   0.223   0.222   0.236   0.243   0.252   0.243   0.229   0.241   0.231   0.227   0.227   0.225   0.225   0.231   0.218   0.213   0.203   0.195
    56.80    0.253   0.248   0.247   0.247   0.249   0.245   0.241   0.245   0.247   0.249   0.250   0.258   0.243   0.241   0.248   0.239   0.236   0.230   0.228   0.227   0.239   0.246   0.257   0.250   0.233   0.229   0.224   0.226   0.238   0.239   0.223   0.209   0.200   0.189   0.198
    52.15    0.248   0.246   0.236   0.240   0.239   0.237   0.240   0.246   0.244   0.241   0.263   0.251   0.248   0.233   0.250   0.250   0.242   0.235   0.243   0.245   0.249   0.253   0.253   0.235   0.250   0.234   0.227   0.249   0.245   0.246   0.237   0.202   0.202   0.197   0.201
    47.50    0.241   0.233   0.232   0.225   0.221   0.232   0.239   0.231   0.236   0.241   0.243   0.243   0.239   0.235   0.238   0.253   0.255   0.249   0.254   0.247   0.250   0.243   0.253   0.241   0.248   0.242   0.237   0.254   0.243   0.252   0.229   0.211   0.197   0.204   0.186
    42.85    0.242   0.246   0.234   0.220   0.219   0.218   0.220   0.225   0.218   0.236   0.231   0.228   0.240   0.242   0.235   0.258   0.264   0.250   0.247   0.246   0.251   0.247   0.247   0.246   0.239   0.239   0.245   0.249   0.241   0.243   0.223   0.202   0.209   0.207   0.192
    38.20    0.255   0.239   0.233   0.224   0.228   0.210   0.218   0.227   0.230   0.242   0.237   0.225   0.242   0.249   0.248   0.256   0.257   0.248   0.240   0.236   0.236   0.241   0.237   0.236   0.241   0.240   0.236   0.227   0.225   0.236   0.236   0.224   0.217   0.206   0.193
    33.55    0.255   0.251   0.236   0.237   0.222   0.224   0.224   0.225   0.233   0.238   0.234   0.236   0.236   0.242   0.245   0.248   0.252   0.241   0.243   0.229   0.233   0.236   0.242   0.236   0.234   0.239   0.227   0.223   0.219   0.229   0.235   0.236   0.225   0.207   0.198
    28.90    0.247   0.260   0.245   0.239   0.234   0.237   0.233   0.240   0.230   0.236   0.236   0.224   0.235   0.246   0.240   0.246   0.237   0.237   0.231   0.230   0.223   0.227   0.232   0.231   0.239   0.233   0.228   0.217   0.214   0.233   0.232   0.231   0.235   0.211   0.225
    24.25    0.268   0.256   0.247   0.238   0.237   0.233   0.232   0.233   0.244   0.238   0.230   0.240   0.246   0.242   0.243   0.239   0.239   0.232   0.225   0.227   0.231   0.241   0.227   0.241   0.236   0.230   0.220   0.210   0.212   0.222   0.237   0.241   0.237   0.232   0.234
    19.60    0.255   0.252   0.244   0.236   0.234   0.237   0.243   0.239   0.239   0.240   0.230   0.234   0.245   0.245   0.246   0.255   0.253   0.240   0.243   0.230   0.229   0.240   0.243   0.230   0.231   0.216   0.222   0.218   0.217   0.224   0.222   0.236   0.240   0.240   0.246
    14.95    0.266   0.245   0.236   0.249   0.233   0.236   0.244   0.241   0.237   0.234   0.229   0.233   0.241   0.250   0.251   0.254   0.259   0.235   0.234   0.245   0.236   0.240   0.228   0.221   0.225   0.223   0.236   0.236   0.230   0.228   0.227   0.240   0.237   0.239   0.256
    10.30    0.261   0.252   0.249   0.238   0.231   0.229   0.235   0.231   0.221   0.226   0.236   0.245   0.246   0.244   0.251   0.244   0.247   0.240   0.245   0.246   0.240   0.232   0.236   0.226   0.220   0.224   0.232   0.227   0.214   0.221   0.228   0.237   0.242   0.238   0.253
     5.65    0.259   0.268   0.265   0.254   0.245   0.247   0.231   0.233   0.229   0.226   0.232   0.245   0.254   0.252   0.243   0.238   0.253   0.256   0.242   0.235   0.231   0.236   0.241   0.243   0.233   0.221   0.229   0.216   0.209   0.210   0.220   0.228   0.233   0.245   0.264
     1.00    0.256   0.272   0.272   0.253   0.257   0.250   0.252   0.239   0.227   0.242   0.241   0.236   0.250   0.236   0.229   0.242   0.244   0.253   0.248   0.232   0.235   0.236   0.237   0.233   0.217   0.216   0.221   0.209   0.209   0.201   0.208   0.224   0.230   0.233   0.244

   Height   Standard deviation at grid points for the w component:
   168.40    0.144   0.146   0.143   0.144   0.139   0.143   0.145   0.143   0.136   0.134   0.145   0.140   0.137   0.137   0.138   0.136   0.135   0.136   0.131   0.132   0.135   0.141   0.138   0.136   0.135   0.135   0.135   0.131   0.136   0.135   0.129   0.131   0.133   0.136   0.137
   163.75    0.145   0.143   0.144   0.142   0.140   0.139   0.141   0.142   0.143   0.143   0.141   0.142   0.138   0.136   0.133   0.134   0.136   0.136   0.141   0.136   0.134   0.138   0.140   0.136   0.135   0.132   0.129   0.129   0.129   0.132   0.132   0.130   0.130   0.137   0.136
   159.10    0.143   0.145   0.144   0.145   0.139   0.137   0.140   0.143   0.147   0.151   0.144   0.141   0.131   0.136   0.134   0.134   0.134   0.141   0.143   0.141   0.140   0.136   0.141   0.136   0.136   0.134   0.135   0.134   0.134   0.137   0.135   0.137   0.127   0.131   0.132
   154.45    0.139   0.141   0.146   0.139   0.145   0.140   0.138   0.143   0.146   0.148   0.146   0.142   0.134   0.135   0.133   0.133   0.134   0.143   0.143   0.143   0.147   0.145   0.138   0.136   0.138   0.129   0.131   0.129   0.137   0.137   0.137   0.136   0.133   0.126   0.135
   149.80    0.142   0.145   0.149   0.144   0.142   0.147   0.141   0.143   0.149   0.147   0.143   0.137   0.137   0.138   0.136   0.140   0.139   0.140   0.140   0.139   0.144   0.145   0.138   0.137   0.134   0.129   0.129   0.129   0.131   0.135   0.129   0.129   0.127   0.131   0.134
   145.15    0.142   0.144   0.149   0.149   0.143   0.149   0.144   0.142   0.147   0.144   0.144   0.145   0.144   0.140   0.141   0.141   0.136   0.143   0.137   0.141   0.141   0.141   0.135   0.136   0.135   0.136   0.135   0.131   0.131   0.132   0.130   0.128   0.126   0.131   0.135
   140.50    0.139   0.144   0.144   0.148   0.147   0.143   0.148   0.144   0.141   0.144   0.142   0.144   0.140   0.143   0.146   0.140   0.138   0.143   0.140   0.144   0.140   0.136   0.133   0.134   0.134   0.136   0.132   0.130   0.129   0.129   0.133   0.129   0.127   0.128   0.129
   135.85    0.135   0.140   0.145   0.146   0.142   0.139   0.143   0.141   0.138   0.141   0.140   0.148   0.145   0.143   0.143   0.139   0.138   0.139   0.142   0.148   0.134   0.140   0.135   0.133   0.139   0.136   0.135   0.134   0.133   0.133   0.130   0.128   0.127   0.128   0.130
   131.20    0.135   0.141   0.146   0.144   0.144   0.145   0.142   0.146   0.141   0.140   0.139   0.142   0.145   0.143   0.143   0.140   0.140   0.139   0.140   0.142   0.141   0.136   0.138   0.139   0.139   0.132   0.140   0.136   0.133   0.137   0.132   0.128   0.132   0.132   0.133
   126.55    0.139   0.137   0.140   0.144   0.142   0.148   0.147   0.144   0.141   0.145   0.142   0.144   0.149   0.139   0.138   0.140   0.139   0.140   0.139   0.139   0.142   0.135   0.140   0.139   0.135   0.133   0.140   0.135   0.135   0.134   0.133   0.132   0.132   0.136   0.136
   121.90    0.137   0.138   0.139   0.141   0.145   0.142   0.143   0.142   0.142   0.143   0.140   0.138   0.145   0.139   0.138   0.147   0.145   0.146   0.145   0.140   0.140   0.138   0.137   0.139   0.134   0.135   0.139   0.137   0.132   0.130   0.136   0.132   0.136   0.139   0.138
   117.25    0.137   0.136   0.138   0.142   0.138   0.139   0.140   0.142   0.143   0.145   0.144   0.137   0.144   0.143   0.139   0.139   0.144   0.148   0.144   0.146   0.141   0.134   0.136   0.140   0.134   0.140   0.137   0.137   0.136   0.137   0.132   0.135   0.138   0.138   0.139
   112.60    0.140   0.141   0.147   0.143   0.144   0.141   0.139   0.140   0.144   0.139   0.143   0.143   0.139   0.135   0.140   0.136   0.143   0.137   0.145   0.142   0.140   0.139   0.139   0.137   0.135   0.136   0.136   0.133   0.133   0.138   0.136   0.139   0.139   0.142   0.137
   107.95    0.144   0.142   0.144   0.142   0.144   0.143   0.143   0.146   0.148   0.146   0.143   0.137   0.140   0.137   0.138   0.137   0.139   0.140   0.143   0.137   0.137   0.138   0.135   0.139   0.132   0.132   0.132   0.134   0.139   0.139   0.140   0.143   0.139   0.141   0.137
   103.30    0.143   0.142   0.142   0.137   0.137   0.140   0.141   0.142   0.144   0.139   0.138   0.136   0.138   0.136   0.136   0.138   0.142   0.137   0.138   0.138   0.137   0.133   0.139   0.137   0.132   0.130   0.134   0.140   0.145   0.145   0.143   0.144   0.145   0.141   0.139
    98.65    0.143   0.143   0.139   0.140   0.138   0.140   0.139   0.141   0.145   0.140   0.138   0.135   0.135   0.136   0.135   0.140   0.145   0.141   0.139   0.137   0.138   0.138   0.139   0.138   0.132   0.130   0.137   0.139   0.143   0.143   0.141   0.140   0.142   0.141   0.139
    94.00    0.143   0.140   0.135   0.137   0.142   0.139   0.141   0.142   0.138   0.139   0.139   0.140   0.141   0.138   0.140   0.142   0.139   0.140   0.138   0.138   0.142   0.141   0.142   0.137   0.135   0.131   0.132   0.135   0.138   0.143   0.143   0.144   0.140   0.135   0.134
    89.35    0.141   0.142   0.139   0.139   0.138   0.141   0.141   0.141   0.140   0.143   0.138   0.144   0.142   0.140   0.141   0.140   0.146   0.146   0.141   0.139   0.143   0.141   0.142   0.140   0.136   0.139   0.131   0.132   0.135   0.144   0.148   0.143   0.138   0.136   0.139
    84.70    0.142   0.142   0.142   0.143   0.140   0.140   0.139   0.142   0.140   0.139   0.140   0.139   0.136   0.146   0.145   0.143   0.144   0.145   0.136   0.137   0.138   0.140   0.141   0.135   0.136   0.138   0.137   0.133   0.136   0.141   0.141   0.144   0.143   0.136   0.137
    80.05    0.142   0.141   0.140   0.145   0.144   0.140   0.139   0.138   0.139   0.138   0.140   0.144   0.142   0.143   0.142   0.139   0.145   0.135   0.135   0.137   0.143   0.143   0.143   0.147   0.141   0.145   0.140   0.138   0.136   0.138   0.142   0.139   0.136   0.137   0.130
    75.40    0.141   0.142   0.143   0.141   0.140   0.137   0.138   0.137   0.138   0.135   0.143   0.141   0.142   0.141   0.146   0.140   0.139   0.137   0.137   0.144   0.146   0.146   0.147   0.148   0.152   0.142   0.136   0.137   0.138   0.131   0.138   0.140   0.137   0.131   0.133
    70.75    0.138   0.142   0.138   0.139   0.142   0.138   0.135   0.137   0.132   0.138   0.143   0.142   0.143   0.142   0.140   0.142   0.139   0.140   0.143   0.141   0.146   0.150   0.151   0.150   0.145   0.141   0.135   0.139   0.139   0.133   0.130   0.135   0.139   0.138   0.137
    66.10    0.135   0.142   0.144   0.143   0.141   0.141   0.138   0.137   0.139   0.141   0.143   0.143   0.138   0.141   0.145   0.143   0.142   0.141   0.145   0.141   0.145   0.154   0.157   0.149   0.141   0.139   0.145   0.144   0.140   0.134   0.138   0.139   0.138   0.139   0.138
    61.45    0.137   0.140   0.140   0.144   0.142   0.145   0.141   0.145   0.142   0.140   0.140   0.139   0.147   0.145   0.141   0.142   0.147   0.147   0.146   0.145   0.151   0.151   0.149   0.145   0.139   0.141   0.142   0.138   0.142   0.137   0.133   0.134   0.130   0.129   0.135
    56.80    0.141   0.142   0.141   0.140   0.145   0.144   0.142   0.144   0.141   0.139   0.140   0.136   0.148   0.142   0.141   0.140   0.141   0.146   0.149   0.139   0.145   0.149   0.145   0.144   0.140   0.143   0.139   0.138   0.140   0.141   0.138   0.136   0.136   0.135   0.136
    52.15    0.139   0.143   0.142   0.142   0.143   0.146   0.143   0.139   0.139   0.139   0.136   0.138   0.143   0.145   0.140   0.135   0.139   0.139   0.143   0.141   0.141   0.142   0.137   0.142   0.146   0.150   0.142   0.145   0.139   0.138   0.137   0.135   0.138   0.136   0.136
    47.50    0.140   0.137   0.140   0.141   0.139   0.140   0.142   0.137   0.135   0.141   0.137   0.141   0.142   0.140   0.140   0.136   0.136   0.137   0.140   0.137   0.140   0.136   0.136   0.143   0.145   0.146   0.144   0.138   0.136   0.138   0.140   0.136   0.137   0.140   0.135
    42.85    0.136   0.137   0.140   0.142   0.136   0.136   0.137   0.137   0.138   0.135   0.136   0.136   0.137   0.136   0.137   0.134   0.136   0.141   0.140   0.139   0.138   0.138   0.139   0.140   0.140   0.139   0.136   0.138   0.137   0.138   0.134   0.134   0.138   0.140   0.135
    38.20    0.138   0.135   0.142   0.138   0.137   0.136   0.132   0.132   0.136   0.133   0.134   0.137   0.139   0.139   0.142   0.137   0.140   0.142   0.140   0.137   0.141   0.138   0.140   0.141   0.137   0.137   0.134   0.133   0.136   0.138   0.141   0.135   0.138   0.139   0.138
    33.55    0.138   0.142   0.142   0.140   0.139   0.138   0.132   0.134   0.138   0.140   0.137   0.137   0.139   0.135   0.137   0.143   0.142   0.141   0.137   0.141   0.138   0.142   0.138   0.139   0.138   0.138   0.135   0.136   0.137   0.136   0.135   0.137   0.132   0.135   0.134
    28.90    0.140   0.132   0.140   0.138   0.136   0.137   0.139   0.142   0.142   0.138   0.139   0.138   0.137   0.139   0.139   0.143   0.142   0.145   0.138   0.135   0.136   0.140   0.140   0.141   0.138   0.144   0.138   0.137   0.140   0.131   0.131   0.125   0.131   0.131   0.129
    24.25    0.136   0.132   0.132   0.131   0.135   0.139   0.141   0.142   0.140   0.140   0.141   0.137   0.140   0.142   0.144   0.143   0.143   0.143   0.142   0.136   0.139   0.140   0.140   0.141   0.139   0.139   0.142   0.139   0.141   0.131   0.130   0.130   0.130   0.132   0.135
    19.60    0.130   0.131   0.130   0.133   0.132   0.134   0.136   0.139   0.137   0.137   0.135   0.136   0.140   0.140   0.139   0.140   0.141   0.146   0.141   0.140   0.141   0.140   0.136   0.139   0.136   0.141   0.142   0.139   0.140   0.133   0.134   0.132   0.129   0.134   0.134
    14.95    0.132   0.132   0.130   0.130   0.134   0.134   0.133   0.130   0.134   0.132   0.137   0.135   0.142   0.140   0.141   0.134   0.134   0.138   0.139   0.136   0.137   0.139   0.136   0.141   0.139   0.133   0.138   0.141   0.143   0.139   0.136   0.140   0.134   0.131   0.134
    10.30    0.135   0.135   0.133   0.131   0.136   0.136   0.138   0.135   0.134   0.138   0.140   0.139   0.139   0.137   0.141   0.140   0.137   0.137   0.135   0.137   0.143   0.144   0.142   0.144   0.144   0.134   0.136   0.139   0.140   0.140   0.135   0.132   0.134   0.134   0.137
     5.65    0.136   0.137   0.134   0.135   0.135   0.139   0.136   0.135   0.137   0.134   0.138   0.140   0.136   0.135   0.139   0.138   0.140   0.141   0.134   0.136   0.138   0.146   0.150   0.145   0.144   0.140   0.141   0.138   0.136   0.139   0.138   0.135   0.138   0.134   0.135
     1.00    0.138   0.140   0.135   0.136   0.135   0.139   0.137   0.135   0.136   0.141   0.140   0.140   0.134   0.134   0.139   0.144   0.141   0.141   0.142   0.140   0.143   0.148   0.148   0.148   0.144   0.142   0.136   0.139   0.141   0.135   0.137   0.137   0.136   0.138   0.136

   Mean standard deviation across all grid points:
      u component:    0.292 m/s
      v component:    0.238 m/s
      w component:    0.139 m/s


U-component (X) statistics from the interpolated hub point:

   Mean =   9.9913 m/s
   TI   =   2.8059 %


Processing complete.  6425.1 CPU seconds used.
