
This summary file was generated by TurbSim (from OpenFAST-v3.5.3) on 19-Apr-2025 at 23:43:57.


Runtime Options:

**********  Random seed #1
    RANLUX  Type of random number generator
         F  Output binary HH turbulence parameters?
         F  Output formatted turbulence parameters?
         F  Output AeroDyn HH files?
         T  Output AeroDyn FF files?
         F  Output BLADED FF files?
         F  Output tower data?
         F  Output HAWC FF files?
         F  Output formatted FF files?
         T  Output coherent turbulence time step file?
 0 -  NONE  IEC turbulence models scaled to exact specified standard deviation


Turbine/Model Specifications:

        39  Vertical grid-point matrix dimension
       193  Horizontal grid-point matrix dimension
     0.250  Time step [seconds]
   900.000  Analysis time [seconds]
   900.000  Usable output time [seconds]
   177.700  Hub height [m]
   353.400  Grid height [m]
  1785.600  Grid width [m]
     0.000  Vertical flow angle [degrees]
     0.000  Horizontal flow angle [degrees]


Meteorological Boundary Conditions:

    IECKAI  IEC Kaimal spectral model
         1  IEC standard: IEC 61400-1 Ed. 3: 2005
     4.000  Percent turbulence intensity, IEC 61400-1 Ed. 3: 2005
       NTM  IEC Normal Turbulence Model
       N/A  IEC Extreme Turbulence Model (ETM) "c" parameter [m/s]
       USR  Wind profile type
    90.000  Reference height [m]
       N/A  Reference wind speed [m/s]
       N/A  Jet height [m]
       N/A  Power law exponent
     0.030  Surface roughness length [m]


Non-IEC Meteorological Boundary Conditions:

       N/A  Site latitude [degrees]
       N/A  Gradient Richardson number
       N/A  Friction or shear velocity [m/s]
       N/A  Mixing layer depth [m]
       N/A  Mean hub u'w' Reynolds stress
       N/A  Mean hub u'v' Reynolds stress
       N/A  Mean hub v'w' Reynolds stress


Spatial Coherence Models:

       IEC  u-component coherence model
       IEC  v-component coherence model
       IEC  w-component coherence model
(   12.000, 0.353E-03)  u-component coherence parameters
(   12.000, 0.353E-03)  v-component coherence parameters
(   12.000, 0.353E-03)  w-component coherence parameters
       N/A  Coherence exponent


User-Defined Profiles:

  Height   Wind Speed   Horizontal Angle
   (m)        (m/s)          (deg)      
  ------   ----------   ----------------
  353.40      10.00         318.19
  334.80      10.00         321.14
  316.20      10.00         324.10
  297.60      10.00         327.05
  279.00      10.00         330.00
  260.40      10.00         332.95
  241.80      10.00         335.90
  223.20      10.00         338.86
  204.60      10.00         341.81
  186.00      10.00         344.76
  167.40      10.00         347.71
  148.80      10.00         350.67
  130.20      10.00         353.62
  111.60      10.00         356.57
   93.00      10.00         359.52
   74.40      10.00           2.48
   55.80      10.00           5.43
   37.20      10.00           8.38
   18.60      10.00          11.33
    0.00      10.00          14.29


You have requested that the following file(s) be generated:

   /kfs3/scratch/agupta/Projects/RL_Incubator/FinalRuns_Veer/Seed4/./FFSim_Seed4/Cond00_v10.0_PL0.12_TI4.0/Seed_7/Low.bts (AeroDyn/TurbSim full-field wind file)


Turbulence Simulation Scaling Parameter Summary:

   Turbulence model used                            =  IEC Kaimal
   Turbulence characteristic                        =  User-specified
   IEC standard                                     =  IEC 61400-1 Ed. 3: 2005
   Mean wind speed at hub height                    =   10.000 m/s
   Characteristic value of standard deviation       =    0.400 m/s
   Turbulence scale                                 =   42.000 m
   u-component integral scale                       =  340.200 m
   Coherency scale                                  =  340.200 m
   Characteristic value of hub turbulence intensity =    4.000%
   Gradient Richardson number                       =    0.000

   Wind profile type                                =  Linear interpolation of user-defined profile
   Equivalent power law exponent (upper rotor disk) =    0.000
   Mean shear across rotor disk                     =    0.000 (m/s)/m
   Assumed rotor diameter                           =  353.400 m
   Surface roughness length                         =    0.030 m

   Nyquist frequency of turbulent wind field        =    2.000 Hz

   Number of time steps in the FFT                  =     3600
   Number of time steps output                      =     3600
   Number of points simulated                       =     7527


Mean Flow Angles:

   Vertical   =   0.0 degrees
   Horizontal =   0.0 degrees

Mean Wind Speed Profile:

   Height    Wind Speed   Horizontal Angle  Vertical Angle  U-comp (X)   V-comp (Y)   W-comp (Z)
     (m)        (m/s)         (degrees)       (degrees)       (m/s)        (m/s)        (m/s)   
   ------    ----------   ----------------  --------------  ----------   ----------   ----------
    354.4       10.00          318.19            0.00          7.45        -6.67         0.00
    345.1       10.00          319.51            0.00          7.60        -6.49         0.00
    335.8       10.00          320.98            0.00          7.77        -6.30         0.00
    326.5       10.00          322.46            0.00          7.93        -6.09         0.00
    317.2       10.00          323.94            0.00          8.08        -5.89         0.00
    307.9       10.00          325.41            0.00          8.23        -5.68         0.00
    298.6       10.00          326.89            0.00          8.38        -5.46         0.00
    289.3       10.00          328.37            0.00          8.51        -5.25         0.00
    280.0       10.00          329.84            0.00          8.65        -5.02         0.00
    270.7       10.00          331.32            0.00          8.77        -4.80         0.00
    261.4       10.00          332.79            0.00          8.89        -4.57         0.00
    252.1       10.00          334.27            0.00          9.01        -4.34         0.00
    242.8       10.00          335.75            0.00          9.12        -4.11         0.00
    233.5       10.00          337.22            0.00          9.22        -3.87         0.00
    224.2       10.00          338.70            0.00          9.32        -3.63         0.00
    214.9       10.00          340.17            0.00          9.41        -3.39         0.00
    205.6       10.00          341.65            0.00          9.49        -3.15         0.00
    196.3       10.00          343.13            0.00          9.57        -2.90         0.00
    187.0       10.00          344.60            0.00          9.64        -2.66         0.00
    177.7       10.00          346.08            0.00          9.71        -2.41         0.00
    168.4       10.00          347.56            0.00          9.77        -2.15         0.00
    159.1       10.00          349.03            0.00          9.82        -1.90         0.00
    149.8       10.00          350.51            0.00          9.86        -1.65         0.00
    140.5       10.00          351.98            0.00          9.90        -1.39         0.00
    131.2       10.00          353.46            0.00          9.93        -1.14         0.00
    121.9       10.00          354.94            0.00          9.96        -0.88         0.00
    112.6       10.00          356.41            0.00          9.98        -0.63         0.00
    103.3       10.00          357.89            0.00          9.99        -0.37         0.00
     94.0       10.00          359.37            0.00         10.00        -0.11         0.00
     84.7       10.00          360.84            0.00         10.00         0.15         0.00
     75.4       10.00          362.32            0.00          9.99         0.40         0.00
     66.1       10.00            3.79            0.00          9.98         0.66         0.00
     56.8       10.00            5.27            0.00          9.96         0.92         0.00
     47.5       10.00            6.75            0.00          9.93         1.17         0.00
     38.2       10.00            8.22            0.00          9.90         1.43         0.00
     28.9       10.00            9.70            0.00          9.86         1.68         0.00
     19.6       10.00           11.17            0.00          9.81         1.94         0.00
     10.3       10.00           12.65            0.00          9.76         2.19         0.00
      1.0       10.00           14.13            0.00          9.70         2.44         0.00


Harvested Random Seeds after Generation of the Random Numbers:

    377667225 K 1
            0 K 2


Hub-Height Simulated Turbulence Statistical Summary:

   Type of Wind        Min (m/s)   Mean (m/s)    Max (m/s)  Sigma (m/s)       TI (%)
   ----------------    ---------   ----------    ---------  -----------       ------
   Longitudinal (u)         8.72        10.00        11.33        0.390        3.896
   Lateral (v)             -1.17        -0.00         1.14        0.327        3.268
   Vertical (w)            -0.66         0.00         0.63        0.188        1.880
   U component              8.56         9.71        11.05        0.375        3.869
   V component             -3.61        -2.41        -1.37        0.343        3.533
   W component             -0.66         0.00         0.63        0.188        1.937
   Horizontal (U&V)         8.73        10.01        11.33        0.390        3.893
   Total                    8.73        10.01        11.33        0.389        3.891

                       Min Reynolds     Mean Reynolds    Max Reynolds    Correlation
   Product             Stress (m/s)^2   Stress (m/s)^2   Stress (m/s)^2  Coefficient
   ----------------    --------------   --------------   --------------  -----------
   u'w'                     -0.519            -0.004             0.445        -0.051
   u'v'                     -0.696            -0.018             0.550        -0.138
   v'w'                     -0.327            -0.001             0.332        -0.018


   Friction Velocity (Ustar)  =      0.061 m/s
   Maximum Instantaneous TKE  =      0.922 (m/s)^2
   Maximum Instantaneous CTKE =      0.362 (m/s)^2


Grid Point Variance Summary:

   Y-coord -892.80 -883.50 -874.20 -864.90 -855.60 -846.30 -837.00 -827.70 -818.40 -809.10 -799.80 -790.50 -781.20 -771.90 -762.60 -753.30 -744.00 -734.70 -725.40 -716.10 -706.80 -697.50 -688.20 -678.90 -669.60 -660.30 -651.00 -641.70 -632.40 -623.10 -613.80 -604.50 -595.20 -585.90 -576.60 -567.30 -558.00 -548.70 -539.40 -530.10 -520.80 -511.50 -502.20 -492.90 -483.60 -474.30 -465.00 -455.70 -446.40 -437.10 -427.80 -418.50 -409.20 -399.90 -390.60 -381.30 -372.00 -362.70 -353.40 -344.10 -334.80 -325.50 -316.20 -306.90 -297.60 -288.30 -279.00 -269.70 -260.40 -251.10 -241.80 -232.50 -223.20 -213.90 -204.60 -195.30 -186.00 -176.70 -167.40 -158.10 -148.80 -139.50 -130.20 -120.90 -111.60 -102.30  -93.00  -83.70  -74.40  -65.10  -55.80  -46.50  -37.20  -27.90  -18.60   -9.30    0.00    9.30   18.60   27.90   37.20   46.50   55.80   65.10   74.40   83.70   93.00  102.30  111.60  120.90  130.20  139.50  148.80  158.10  167.40  176.70  186.00  195.30  204.60  213.90  223.20  232.50  241.80  251.10  260.40  269.70  279.00  288.30  297.60  306.90  316.20  325.50  334.80  344.10  353.40  362.70  372.00  381.30  390.60  399.90  409.20  418.50  427.80  437.10  446.40  455.70  465.00  474.30  483.60  492.90  502.20  511.50  520.80  530.10  539.40  548.70  558.00  567.30  576.60  585.90  595.20  604.50  613.80  623.10  632.40  641.70  651.00  660.30  669.60  678.90  688.20  697.50  706.80  716.10  725.40  734.70  744.00  753.30  762.60  771.90  781.20  790.50  799.80  809.10  818.40  827.70  837.00  846.30  855.60  864.90  874.20  883.50  892.80

   Height   Standard deviation at grid points for the u component:
   354.40    0.333   0.319   0.318   0.339   0.349   0.368   0.379   0.396   0.389   0.371   0.365   0.345   0.349   0.372   0.386   0.377   0.395   0.370   0.363   0.368   0.376   0.382   0.382   0.398   0.371   0.369   0.361   0.358   0.374   0.367   0.376   0.395   0.378   0.352   0.376   0.361   0.370   0.389   0.376   0.350   0.367   0.333   0.338   0.354   0.330   0.348   0.367   0.395   0.362   0.363   0.370   0.345   0.333   0.323   0.326   0.336   0.341   0.323   0.318   0.312   0.325   0.327   0.347   0.352   0.382   0.359   0.354   0.350   0.381   0.375   0.370   0.380   0.416   0.369   0.374   0.379   0.393   0.395   0.374   0.371   0.359   0.366   0.367   0.338   0.349   0.354   0.383   0.380   0.366   0.356   0.369   0.404   0.383   0.399   0.374   0.364   0.409   0.404   0.431   0.427   0.416   0.422   0.422   0.390   0.375   0.357   0.323   0.347   0.348   0.358   0.379   0.385   0.373   0.376   0.370   0.360   0.378   0.372   0.345   0.314   0.345   0.344   0.315   0.302   0.338   0.318   0.303   0.339   0.341   0.361   0.377   0.396   0.413   0.374   0.392   0.364   0.348   0.351   0.358   0.348   0.357   0.361   0.333   0.340   0.335   0.356   0.328   0.345   0.335   0.289   0.304   0.297   0.308   0.305   0.320   0.331   0.352   0.336   0.334   0.335   0.315   0.299   0.306   0.332   0.348   0.347   0.346   0.344   0.347   0.363   0.362   0.357   0.345   0.378   0.416   0.424   0.432   0.423   0.406   0.414   0.450   0.437   0.431   0.441   0.469   0.472   0.471   0.436   0.461   0.430   0.425   0.415   0.425
   345.10    0.337   0.353   0.340   0.365   0.387   0.403   0.370   0.388   0.381   0.377   0.368   0.354   0.337   0.375   0.355   0.349   0.362   0.354   0.348   0.356   0.385   0.374   0.400   0.415   0.390   0.360   0.332   0.361   0.368   0.366   0.373   0.379   0.369   0.349   0.375   0.377   0.373   0.391   0.392   0.358   0.344   0.329   0.334   0.362   0.349   0.361   0.384   0.364   0.370   0.369   0.346   0.341   0.323   0.329   0.356   0.358   0.338   0.333   0.355   0.340   0.340   0.343   0.336   0.329   0.348   0.360   0.359   0.358   0.352   0.389   0.377   0.379   0.363   0.384   0.396   0.384   0.406   0.363   0.344   0.345   0.340   0.367   0.370   0.364   0.358   0.352   0.392   0.377   0.369   0.366   0.394   0.397   0.411   0.378   0.362   0.390   0.405   0.417   0.425   0.408   0.402   0.426   0.432   0.415   0.386   0.400   0.366   0.354   0.346   0.381   0.394   0.405   0.381   0.377   0.370   0.380   0.382   0.386   0.349   0.312   0.329   0.341   0.302   0.340   0.312   0.314   0.329   0.320   0.324   0.367   0.380   0.376   0.403   0.404   0.406   0.372   0.361   0.355   0.375   0.358   0.370   0.386   0.361   0.326   0.337   0.320   0.315   0.321   0.314   0.285   0.299   0.308   0.298   0.312   0.313   0.321   0.340   0.347   0.334   0.336   0.321   0.307   0.297   0.314   0.334   0.352   0.334   0.337   0.360   0.372   0.361   0.373   0.376   0.389   0.418   0.433   0.426   0.423   0.393   0.418   0.461   0.453   0.424   0.442   0.467   0.462   0.418   0.414   0.443   0.468   0.426   0.419   0.426
   335.80    0.352   0.350   0.366   0.391   0.397   0.413   0.394   0.398   0.387   0.382   0.369   0.363   0.348   0.375   0.387   0.368   0.329   0.345   0.355   0.341   0.376   0.374   0.375   0.392   0.385   0.370   0.353   0.357   0.352   0.360   0.364   0.354   0.336   0.345   0.335   0.340   0.337   0.354   0.388   0.354   0.335   0.330   0.337   0.338   0.332   0.368   0.397   0.379   0.353   0.354   0.342   0.317   0.330   0.331   0.345   0.368   0.363   0.343   0.341   0.358   0.350   0.340   0.355   0.352   0.358   0.336   0.361   0.359   0.369   0.368   0.355   0.367   0.381   0.365   0.395   0.398   0.400   0.362   0.339   0.340   0.350   0.381   0.356   0.381   0.358   0.352   0.378   0.403   0.395   0.393   0.415   0.424   0.419   0.393   0.380   0.411   0.428   0.441   0.428   0.431   0.411   0.426   0.442   0.422   0.389   0.398   0.357   0.334   0.337   0.369   0.380   0.422   0.400   0.383   0.369   0.382   0.374   0.380   0.357   0.325   0.336   0.351   0.339   0.357   0.338   0.327   0.340   0.350   0.344   0.368   0.382   0.381   0.384   0.386   0.368   0.371   0.357   0.365   0.363   0.379   0.351   0.352   0.361   0.323   0.326   0.330   0.318   0.311   0.300   0.283   0.294   0.284   0.276   0.317   0.311   0.328   0.322   0.328   0.340   0.319   0.319   0.299   0.317   0.315   0.343   0.338   0.335   0.338   0.347   0.361   0.369   0.357   0.375   0.397   0.407   0.430   0.419   0.418   0.404   0.431   0.462   0.464   0.431   0.430   0.435   0.421   0.413   0.408   0.452   0.422   0.449   0.426   0.447
   326.50    0.339   0.353   0.384   0.407   0.414   0.454   0.430   0.385   0.404   0.386   0.364   0.370   0.340   0.372   0.391   0.365   0.356   0.344   0.369   0.362   0.374   0.359   0.366   0.353   0.371   0.379   0.385   0.355   0.378   0.390   0.393   0.385   0.364   0.347   0.343   0.326   0.361   0.380   0.369   0.343   0.335   0.359   0.360   0.345   0.359   0.375   0.389   0.396   0.367   0.340   0.333   0.331   0.336   0.341   0.336   0.348   0.341   0.329   0.353   0.356   0.364   0.348   0.365   0.343   0.357   0.341   0.353   0.387   0.396   0.400   0.376   0.360   0.383   0.403   0.405   0.401   0.369   0.377   0.344   0.344   0.349   0.363   0.358   0.393   0.391   0.381   0.388   0.400   0.405   0.390   0.437   0.418   0.400   0.397   0.400   0.370   0.407   0.405   0.426   0.404   0.398   0.413   0.423   0.453   0.414   0.402   0.376   0.343   0.356   0.358   0.371   0.383   0.383   0.382   0.372   0.393   0.368   0.376   0.336   0.330   0.338   0.329   0.338   0.337   0.343   0.354   0.332   0.354   0.358   0.381   0.360   0.360   0.364   0.379   0.369   0.363   0.348   0.349   0.358   0.367   0.378   0.364   0.366   0.348   0.355   0.354   0.339   0.299   0.305   0.307   0.303   0.293   0.296   0.303   0.307   0.319   0.316   0.317   0.349   0.349   0.323   0.327   0.334   0.331   0.349   0.336   0.335   0.341   0.341   0.340   0.368   0.390   0.369   0.377   0.411   0.427   0.398   0.434   0.430   0.433   0.456   0.458   0.447   0.467   0.441   0.398   0.417   0.438   0.439   0.441   0.429   0.422   0.427
   317.20    0.349   0.350   0.376   0.400   0.413   0.423   0.396   0.399   0.425   0.387   0.382   0.366   0.368   0.381   0.393   0.363   0.359   0.365   0.364   0.385   0.364   0.376   0.356   0.355   0.344   0.362   0.382   0.361   0.354   0.406   0.403   0.389   0.356   0.336   0.349   0.330   0.380   0.398   0.374   0.351   0.352   0.344   0.384   0.380   0.371   0.385   0.395   0.387   0.368   0.346   0.333   0.343   0.349   0.363   0.344   0.362   0.350   0.321   0.350   0.376   0.363   0.350   0.350   0.340   0.345   0.349   0.366   0.365   0.389   0.407   0.417   0.386   0.389   0.383   0.404   0.412   0.388   0.367   0.343   0.323   0.337   0.360   0.359   0.379   0.380   0.373   0.394   0.383   0.408   0.424   0.434   0.377   0.381   0.393   0.383   0.369   0.379   0.402   0.393   0.412   0.415   0.398   0.389   0.403   0.401   0.400   0.385   0.373   0.330   0.338   0.352   0.333   0.371   0.349   0.343   0.337   0.373   0.402   0.357   0.352   0.333   0.321   0.339   0.349   0.349   0.339   0.343   0.335   0.353   0.357   0.363   0.377   0.390   0.377   0.363   0.343   0.341   0.337   0.348   0.370   0.387   0.365   0.352   0.352   0.366   0.345   0.336   0.327   0.322   0.308   0.281   0.297   0.300   0.306   0.293   0.318   0.330   0.343   0.352   0.340   0.325   0.301   0.327   0.335   0.333   0.340   0.361   0.352   0.364   0.362   0.363   0.386   0.371   0.377   0.410   0.410   0.389   0.430   0.444   0.455   0.453   0.474   0.479   0.477   0.431   0.433   0.406   0.422   0.420   0.425   0.425   0.412   0.410
   307.90    0.340   0.338   0.381   0.390   0.396   0.391   0.384   0.378   0.411   0.396   0.360   0.372   0.392   0.395   0.370   0.374   0.381   0.370   0.372   0.372   0.364   0.362   0.341   0.330   0.343   0.334   0.361   0.350   0.366   0.393   0.373   0.388   0.365   0.348   0.346   0.367   0.398   0.391   0.382   0.354   0.352   0.341   0.372   0.386   0.384   0.396   0.398   0.395   0.364   0.347   0.343   0.341   0.360   0.375   0.364   0.354   0.343   0.354   0.369   0.376   0.368   0.362   0.347   0.351   0.334   0.346   0.384   0.393   0.376   0.362   0.378   0.381   0.362   0.404   0.400   0.415   0.382   0.363   0.357   0.337   0.339   0.315   0.355   0.357   0.377   0.397   0.376   0.389   0.413   0.429   0.425   0.384   0.353   0.382   0.369   0.374   0.374   0.373   0.348   0.395   0.397   0.408   0.381   0.379   0.397   0.398   0.380   0.350   0.347   0.334   0.352   0.341   0.359   0.362   0.317   0.318   0.343   0.366   0.359   0.338   0.325   0.326   0.343   0.336   0.337   0.333   0.333   0.322   0.342   0.352   0.371   0.388   0.367   0.355   0.336   0.332   0.316   0.304   0.328   0.375   0.375   0.386   0.398   0.388   0.362   0.373   0.313   0.328   0.330   0.294   0.305   0.294   0.290   0.300   0.283   0.306   0.363   0.360   0.375   0.378   0.335   0.318   0.344   0.365   0.366   0.374   0.371   0.379   0.378   0.371   0.379   0.375   0.382   0.379   0.408   0.412   0.412   0.415   0.415   0.435   0.431   0.460   0.470   0.452   0.432   0.411   0.373   0.390   0.425   0.407   0.430   0.389   0.392
   298.60    0.352   0.337   0.365   0.394   0.386   0.390   0.375   0.365   0.386   0.398   0.393   0.399   0.378   0.378   0.378   0.372   0.367   0.375   0.384   0.372   0.352   0.349   0.357   0.347   0.329   0.331   0.337   0.350   0.376   0.371   0.369   0.353   0.358   0.365   0.344   0.376   0.380   0.391   0.394   0.374   0.346   0.337   0.341   0.356   0.389   0.378   0.377   0.386   0.380   0.375   0.347   0.329   0.330   0.345   0.346   0.343   0.327   0.341   0.369   0.354   0.367   0.372   0.374   0.349   0.340   0.380   0.399   0.396   0.373   0.356   0.350   0.374   0.351   0.369   0.400   0.392   0.363   0.363   0.353   0.340   0.349   0.346   0.357   0.363   0.370   0.386   0.379   0.380   0.388   0.410   0.407   0.388   0.374   0.383   0.401   0.383   0.367   0.386   0.400   0.411   0.403   0.392   0.391   0.357   0.341   0.367   0.372   0.348   0.356   0.342   0.347   0.360   0.357   0.345   0.340   0.321   0.336   0.339   0.339   0.332   0.317   0.320   0.339   0.349   0.345   0.334   0.351   0.335   0.356   0.348   0.342   0.356   0.364   0.342   0.327   0.288   0.291   0.293   0.294   0.334   0.344   0.347   0.380   0.384   0.372   0.359   0.343   0.347   0.327   0.292   0.316   0.286   0.270   0.294   0.321   0.308   0.363   0.373   0.364   0.378   0.344   0.329   0.338   0.347   0.356   0.371   0.365   0.355   0.363   0.362   0.378   0.373   0.352   0.400   0.372   0.403   0.417   0.410   0.403   0.419   0.425   0.450   0.437   0.422   0.439   0.390   0.404   0.400   0.393   0.398   0.406   0.383   0.374
   289.30    0.331   0.337   0.357   0.370   0.374   0.371   0.380   0.371   0.379   0.417   0.416   0.396   0.363   0.351   0.340   0.349   0.355   0.352   0.376   0.352   0.359   0.352   0.339   0.337   0.354   0.333   0.339   0.349   0.367   0.368   0.362   0.355   0.340   0.349   0.347   0.347   0.361   0.342   0.385   0.369   0.335   0.339   0.337   0.362   0.379   0.370   0.389   0.335   0.356   0.350   0.338   0.337   0.333   0.360   0.340   0.351   0.350   0.368   0.359   0.338   0.346   0.347   0.378   0.380   0.381   0.399   0.385   0.378   0.355   0.360   0.362   0.344   0.361   0.371   0.375   0.387   0.395   0.366   0.391   0.376   0.359   0.360   0.370   0.396   0.398   0.402   0.383   0.390   0.414   0.382   0.394   0.386   0.365   0.381   0.364   0.355   0.385   0.382   0.405   0.388   0.391   0.390   0.372   0.378   0.370   0.383   0.350   0.351   0.357   0.367   0.343   0.367   0.348   0.348   0.328   0.329   0.319   0.323   0.329   0.341   0.333   0.332   0.317   0.333   0.340   0.327   0.335   0.357   0.377   0.341   0.340   0.369   0.371   0.351   0.339   0.294   0.282   0.308   0.305   0.319   0.340   0.349   0.358   0.371   0.370   0.366   0.351   0.322   0.318   0.308   0.300   0.292   0.298   0.311   0.315   0.335   0.364   0.353   0.346   0.358   0.367   0.348   0.344   0.362   0.363   0.368   0.339   0.348   0.367   0.363   0.363   0.358   0.380   0.414   0.425   0.394   0.428   0.408   0.390   0.401   0.408   0.429   0.402   0.422   0.402   0.380   0.412   0.414   0.418   0.395   0.362   0.340   0.342
   280.00    0.327   0.329   0.336   0.356   0.378   0.367   0.378   0.349   0.393   0.396   0.399   0.375   0.342   0.341   0.353   0.353   0.342   0.355   0.323   0.330   0.352   0.326   0.318   0.357   0.350   0.360   0.374   0.383   0.364   0.366   0.368   0.355   0.347   0.321   0.333   0.373   0.353   0.368   0.354   0.370   0.341   0.339   0.361   0.345   0.361   0.371   0.353   0.362   0.349   0.354   0.347   0.354   0.357   0.344   0.360   0.373   0.357   0.349   0.369   0.357   0.366   0.368   0.388   0.396   0.390   0.407   0.367   0.387   0.363   0.367   0.373   0.380   0.343   0.371   0.359   0.383   0.398   0.393   0.386   0.404   0.374   0.407   0.395   0.419   0.400   0.396   0.363   0.384   0.399   0.411   0.382   0.368   0.395   0.395   0.372   0.337   0.379   0.398   0.401   0.389   0.380   0.376   0.391   0.399   0.397   0.355   0.337   0.363   0.348   0.351   0.339   0.371   0.349   0.353   0.317   0.324   0.333   0.337   0.321   0.329   0.349   0.331   0.302   0.333   0.325   0.323   0.341   0.371   0.350   0.353   0.354   0.363   0.358   0.364   0.345   0.300   0.306   0.320   0.352   0.358   0.360   0.349   0.348   0.381   0.378   0.379   0.345   0.345   0.319   0.327   0.317   0.299   0.298   0.285   0.311   0.339   0.375   0.338   0.351   0.366   0.383   0.356   0.378   0.368   0.365   0.343   0.327   0.343   0.346   0.352   0.357   0.353   0.396   0.392   0.435   0.425   0.415   0.412   0.412   0.404   0.426   0.431   0.432   0.444   0.419   0.406   0.412   0.428   0.390   0.370   0.353   0.338   0.324
   270.70    0.335   0.327   0.337   0.337   0.364   0.370   0.390   0.350   0.388   0.389   0.397   0.374   0.355   0.341   0.357   0.334   0.325   0.322   0.326   0.315   0.321   0.297   0.294   0.327   0.341   0.348   0.353   0.340   0.362   0.335   0.330   0.354   0.347   0.328   0.328   0.337   0.350   0.380   0.332   0.366   0.368   0.343   0.347   0.347   0.377   0.373   0.354   0.338   0.351   0.360   0.361   0.361   0.360   0.348   0.377   0.366   0.349   0.353   0.364   0.371   0.377   0.375   0.391   0.392   0.386   0.404   0.390   0.364   0.365   0.397   0.388   0.378   0.359   0.380   0.390   0.397   0.386   0.390   0.402   0.414   0.432   0.421   0.430   0.440   0.422   0.407   0.386   0.383   0.406   0.406   0.400   0.373   0.395   0.376   0.382   0.343   0.360   0.380   0.381   0.387   0.377   0.382   0.398   0.387   0.353   0.350   0.356   0.356   0.365   0.338   0.338   0.382   0.370   0.371   0.352   0.340   0.317   0.340   0.319   0.337   0.328   0.323   0.302   0.319   0.329   0.341   0.345   0.357   0.360   0.342   0.360   0.356   0.370   0.371   0.334   0.319   0.328   0.328   0.357   0.362   0.401   0.398   0.396   0.379   0.384   0.368   0.354   0.354   0.327   0.344   0.323   0.315   0.324   0.297   0.290   0.335   0.360   0.329   0.359   0.349   0.371   0.368   0.376   0.381   0.354   0.323   0.328   0.342   0.353   0.367   0.360   0.386   0.388   0.400   0.428   0.410   0.405   0.406   0.406   0.407   0.432   0.431   0.403   0.407   0.412   0.418   0.385   0.385   0.368   0.364   0.330   0.323   0.338
   261.40    0.362   0.358   0.340   0.358   0.380   0.401   0.406   0.382   0.395   0.377   0.377   0.367   0.360   0.335   0.319   0.333   0.324   0.317   0.316   0.312   0.315   0.319   0.306   0.323   0.327   0.342   0.318   0.328   0.322   0.304   0.303   0.331   0.336   0.318   0.310   0.336   0.351   0.345   0.342   0.353   0.374   0.342   0.345   0.352   0.368   0.391   0.383   0.358   0.366   0.356   0.334   0.346   0.333   0.370   0.386   0.379   0.376   0.357   0.380   0.399   0.374   0.355   0.389   0.399   0.404   0.387   0.385   0.385   0.385   0.385   0.382   0.375   0.390   0.403   0.417   0.419   0.412   0.410   0.392   0.409   0.435   0.446   0.431   0.453   0.432   0.426   0.381   0.395   0.391   0.401   0.376   0.377   0.381   0.353   0.360   0.334   0.327   0.335   0.361   0.365   0.375   0.359   0.373   0.403   0.410   0.394   0.371   0.375   0.383   0.366   0.358   0.377   0.369   0.348   0.334   0.340   0.334   0.335   0.333   0.320   0.326   0.328   0.330   0.326   0.334   0.353   0.356   0.376   0.359   0.349   0.358   0.388   0.397   0.379   0.378   0.358   0.322   0.333   0.377   0.404   0.414   0.408   0.367   0.379   0.402   0.390   0.361   0.362   0.351   0.318   0.336   0.312   0.313   0.301   0.327   0.314   0.360   0.369   0.377   0.365   0.382   0.383   0.357   0.350   0.358   0.326   0.339   0.368   0.353   0.364   0.381   0.381   0.374   0.383   0.420   0.425   0.427   0.418   0.402   0.396   0.409   0.398   0.360   0.364   0.376   0.357   0.384   0.376   0.356   0.371   0.362   0.366   0.359
   252.10    0.384   0.415   0.404   0.419   0.398   0.406   0.395   0.418   0.406   0.396   0.373   0.372   0.340   0.313   0.307   0.321   0.311   0.304   0.295   0.298   0.289   0.291   0.309   0.312   0.299   0.291   0.298   0.288   0.302   0.305   0.302   0.303   0.315   0.315   0.324   0.328   0.351   0.357   0.345   0.341   0.349   0.356   0.349   0.372   0.399   0.420   0.396   0.353   0.351   0.351   0.369   0.342   0.314   0.369   0.391   0.391   0.359   0.359   0.369   0.369   0.369   0.384   0.405   0.404   0.413   0.388   0.372   0.377   0.361   0.363   0.359   0.363   0.371   0.428   0.444   0.442   0.438   0.407   0.403   0.458   0.453   0.467   0.432   0.429   0.443   0.429   0.391   0.380   0.392   0.397   0.387   0.385   0.345   0.329   0.330   0.328   0.341   0.360   0.376   0.364   0.340   0.356   0.372   0.365   0.382   0.394   0.401   0.386   0.376   0.366   0.333   0.351   0.358   0.346   0.340   0.346   0.351   0.345   0.323   0.313   0.316   0.306   0.299   0.327   0.321   0.332   0.339   0.361   0.369   0.380   0.351   0.398   0.380   0.406   0.386   0.356   0.337   0.354   0.361   0.402   0.406   0.399   0.366   0.347   0.374   0.395   0.382   0.385   0.373   0.356   0.344   0.318   0.300   0.306   0.331   0.346   0.350   0.375   0.361   0.375   0.390   0.390   0.372   0.332   0.331   0.325   0.342   0.344   0.352   0.377   0.400   0.357   0.366   0.415   0.422   0.426   0.408   0.402   0.414   0.431   0.407   0.399   0.374   0.355   0.363   0.382   0.386   0.383   0.353   0.352   0.360   0.360   0.350
   242.80    0.404   0.408   0.430   0.422   0.391   0.380   0.400   0.388   0.395   0.375   0.345   0.370   0.337   0.305   0.318   0.324   0.319   0.311   0.298   0.282   0.306   0.280   0.298   0.305   0.296   0.293   0.289   0.294   0.288   0.296   0.307   0.291   0.300   0.322   0.313   0.304   0.329   0.332   0.346   0.333   0.356   0.361   0.392   0.382   0.394   0.408   0.407   0.374   0.366   0.346   0.324   0.363   0.347   0.367   0.367   0.383   0.386   0.366   0.380   0.385   0.395   0.390   0.392   0.391   0.397   0.373   0.375   0.379   0.357   0.368   0.361   0.355   0.391   0.422   0.446   0.459   0.434   0.415   0.450   0.438   0.465   0.446   0.441   0.424   0.424   0.426   0.380   0.375   0.366   0.388   0.403   0.385   0.377   0.322   0.343   0.336   0.351   0.345   0.366   0.369   0.387   0.364   0.369   0.373   0.375   0.375   0.378   0.373   0.351   0.366   0.363   0.362   0.355   0.351   0.326   0.338   0.360   0.359   0.336   0.340   0.333   0.329   0.317   0.310   0.328   0.309   0.335   0.362   0.388   0.376   0.406   0.399   0.385   0.385   0.375   0.379   0.370   0.378   0.363   0.401   0.395   0.397   0.392   0.369   0.392   0.398   0.392   0.397   0.378   0.353   0.350   0.338   0.303   0.320   0.306   0.333   0.340   0.365   0.356   0.367   0.366   0.362   0.349   0.332   0.346   0.350   0.353   0.323   0.349   0.379   0.373   0.376   0.377   0.406   0.416   0.403   0.382   0.401   0.411   0.401   0.375   0.373   0.387   0.367   0.343   0.369   0.382   0.383   0.378   0.357   0.328   0.347   0.335
   233.50    0.388   0.399   0.403   0.390   0.385   0.363   0.384   0.386   0.397   0.398   0.387   0.364   0.342   0.338   0.329   0.314   0.323   0.313   0.288   0.290   0.300   0.300   0.282   0.297   0.306   0.317   0.287   0.289   0.285   0.285   0.309   0.288   0.313   0.345   0.323   0.304   0.306   0.338   0.357   0.379   0.361   0.372   0.389   0.365   0.381   0.392   0.386   0.371   0.379   0.353   0.349   0.351   0.357   0.388   0.397   0.359   0.374   0.396   0.377   0.399   0.399   0.414   0.404   0.377   0.379   0.377   0.368   0.387   0.380   0.353   0.354   0.376   0.393   0.393   0.421   0.427   0.420   0.428   0.425   0.436   0.469   0.440   0.444   0.456   0.435   0.428   0.387   0.372   0.403   0.405   0.394   0.391   0.384   0.359   0.364   0.376   0.338   0.347   0.379   0.364   0.397   0.392   0.382   0.395   0.394   0.399   0.366   0.341   0.318   0.328   0.338   0.356   0.386   0.365   0.351   0.335   0.343   0.339   0.353   0.344   0.349   0.358   0.331   0.311   0.308   0.320   0.351   0.369   0.374   0.400   0.401   0.380   0.373   0.372   0.396   0.382   0.376   0.389   0.380   0.404   0.384   0.415   0.411   0.400   0.368   0.402   0.403   0.366   0.375   0.376   0.357   0.356   0.313   0.322   0.326   0.332   0.359   0.374   0.358   0.362   0.351   0.352   0.339   0.342   0.359   0.344   0.354   0.358   0.334   0.364   0.365   0.375   0.381   0.411   0.394   0.374   0.393   0.389   0.386   0.399   0.376   0.372   0.355   0.337   0.357   0.397   0.400   0.391   0.365   0.350   0.320   0.337   0.365
   224.20    0.388   0.380   0.382   0.409   0.363   0.347   0.362   0.389   0.372   0.401   0.396   0.362   0.338   0.343   0.353   0.323   0.307   0.291   0.275   0.282   0.282   0.301   0.310   0.320   0.311   0.327   0.295   0.303   0.288   0.295   0.299   0.312   0.341   0.358   0.325   0.322   0.317   0.339   0.355   0.350   0.367   0.392   0.374   0.374   0.385   0.376   0.346   0.357   0.372   0.375   0.344   0.385   0.387   0.375   0.395   0.378   0.386   0.389   0.404   0.386   0.424   0.425   0.437   0.385   0.376   0.393   0.406   0.438   0.425   0.395   0.371   0.374   0.400   0.389   0.413   0.408   0.413   0.418   0.415   0.435   0.453   0.457   0.445   0.439   0.439   0.421   0.383   0.357   0.391   0.400   0.390   0.384   0.388   0.370   0.396   0.385   0.331   0.350   0.344   0.364   0.364   0.393   0.385   0.422   0.426   0.421   0.394   0.342   0.350   0.324   0.340   0.370   0.359   0.368   0.352   0.332   0.324   0.337   0.334   0.332   0.357   0.357   0.347   0.326   0.332   0.313   0.323   0.354   0.380   0.374   0.381   0.384   0.376   0.372   0.369   0.355   0.389   0.385   0.396   0.411   0.403   0.414   0.421   0.409   0.383   0.398   0.400   0.398   0.379   0.379   0.378   0.376   0.380   0.345   0.328   0.348   0.353   0.349   0.354   0.353   0.323   0.319   0.328   0.339   0.350   0.347   0.378   0.369   0.344   0.353   0.348   0.362   0.364   0.374   0.405   0.392   0.406   0.395   0.377   0.395   0.363   0.351   0.348   0.372   0.374   0.396   0.383   0.375   0.347   0.333   0.327   0.328   0.356
   214.90    0.362   0.348   0.388   0.391   0.377   0.377   0.348   0.387   0.387   0.355   0.364   0.361   0.357   0.349   0.338   0.325   0.295   0.311   0.299   0.311   0.288   0.289   0.301   0.290   0.319   0.339   0.337   0.337   0.306   0.302   0.314   0.339   0.341   0.354   0.299   0.334   0.319   0.358   0.360   0.340   0.370   0.390   0.376   0.344   0.358   0.364   0.355   0.361   0.348   0.373   0.356   0.372   0.384   0.356   0.408   0.418   0.406   0.403   0.410   0.407   0.417   0.414   0.439   0.439   0.432   0.430   0.441   0.457   0.435   0.426   0.420   0.398   0.423   0.405   0.410   0.420   0.443   0.423   0.408   0.428   0.448   0.429   0.422   0.413   0.433   0.418   0.391   0.383   0.406   0.390   0.349   0.370   0.384   0.389   0.386   0.368   0.345   0.361   0.363   0.373   0.395   0.404   0.402   0.431   0.439   0.400   0.391   0.395   0.380   0.335   0.365   0.368   0.386   0.385   0.368   0.340   0.341   0.329   0.334   0.346   0.357   0.356   0.324   0.304   0.316   0.305   0.320   0.339   0.373   0.397   0.390   0.408   0.373   0.368   0.340   0.349   0.401   0.404   0.399   0.367   0.391   0.406   0.429   0.391   0.407   0.404   0.411   0.414   0.382   0.376   0.395   0.378   0.364   0.354   0.346   0.347   0.367   0.338   0.344   0.335   0.317   0.307   0.306   0.315   0.353   0.385   0.410   0.384   0.379   0.378   0.371   0.369   0.371   0.371   0.362   0.375   0.387   0.385   0.387   0.368   0.361   0.334   0.339   0.381   0.376   0.381   0.380   0.373   0.356   0.354   0.326   0.320   0.333
   205.60    0.348   0.364   0.368   0.382   0.400   0.392   0.373   0.390   0.386   0.375   0.368   0.359   0.352   0.335   0.336   0.332   0.333   0.310   0.322   0.338   0.304   0.313   0.312   0.325   0.324   0.330   0.323   0.309   0.305   0.303   0.308   0.319   0.334   0.336   0.324   0.315   0.340   0.331   0.349   0.343   0.350   0.360   0.361   0.328   0.347   0.356   0.373   0.385   0.375   0.348   0.338   0.368   0.369   0.371   0.401   0.403   0.422   0.413   0.415   0.422   0.420   0.445   0.439   0.449   0.435   0.437   0.440   0.438   0.435   0.449   0.401   0.408   0.403   0.407   0.423   0.404   0.424   0.446   0.424   0.443   0.431   0.442   0.432   0.424   0.407   0.389   0.379   0.371   0.395   0.389   0.349   0.386   0.398   0.375   0.374   0.383   0.358   0.359   0.360   0.379   0.412   0.402   0.409   0.409   0.402   0.391   0.398   0.410   0.402   0.390   0.384   0.375   0.411   0.411   0.398   0.338   0.342   0.353   0.334   0.350   0.342   0.345   0.320   0.320   0.344   0.334   0.349   0.351   0.386   0.388   0.375   0.397   0.396   0.392   0.357   0.384   0.401   0.384   0.395   0.371   0.372   0.388   0.404   0.416   0.416   0.418   0.439   0.421   0.391   0.383   0.390   0.382   0.392   0.375   0.377   0.369   0.358   0.330   0.317   0.310   0.324   0.306   0.339   0.365   0.380   0.414   0.426   0.403   0.408   0.397   0.409   0.387   0.374   0.379   0.357   0.356   0.386   0.389   0.394   0.390   0.371   0.333   0.348   0.392   0.344   0.369   0.359   0.352   0.352   0.371   0.342   0.332   0.328
   196.30    0.330   0.353   0.377   0.405   0.397   0.402   0.410   0.414   0.402   0.381   0.386   0.362   0.330   0.336   0.338   0.327   0.326   0.333   0.345   0.322   0.331   0.329   0.325   0.315   0.318   0.328   0.313   0.296   0.302   0.301   0.324   0.332   0.331   0.340   0.318   0.313   0.320   0.315   0.323   0.341   0.376   0.392   0.359   0.333   0.347   0.338   0.376   0.404   0.366   0.374   0.349   0.361   0.368   0.385   0.395   0.418   0.393   0.418   0.434   0.435   0.444   0.442   0.469   0.453   0.452   0.459   0.467   0.449   0.444   0.447   0.423   0.401   0.418   0.444   0.444   0.442   0.439   0.436   0.409   0.451   0.471   0.441   0.429   0.412   0.401   0.405   0.391   0.383   0.401   0.401   0.378   0.376   0.381   0.393   0.364   0.398   0.393   0.337   0.353   0.360   0.402   0.385   0.394   0.420   0.383   0.383   0.410   0.411   0.418   0.418   0.399   0.420   0.434   0.421   0.382   0.358   0.347   0.325   0.317   0.326   0.320   0.336   0.343   0.339   0.374   0.390   0.341   0.346   0.391   0.407   0.391   0.387   0.390   0.392   0.385   0.380   0.398   0.379   0.376   0.392   0.363   0.379   0.390   0.416   0.420   0.415   0.423   0.395   0.426   0.388   0.386   0.418   0.401   0.398   0.365   0.362   0.339   0.317   0.325   0.349   0.339   0.343   0.382   0.408   0.428   0.430   0.405   0.400   0.393   0.422   0.418   0.401   0.401   0.400   0.359   0.364   0.369   0.389   0.381   0.378   0.358   0.356   0.350   0.367   0.350   0.359   0.375   0.386   0.389   0.369   0.337   0.345   0.351
   187.00    0.361   0.347   0.384   0.403   0.425   0.417   0.432   0.423   0.436   0.388   0.377   0.349   0.335   0.340   0.341   0.354   0.344   0.354   0.350   0.330   0.331   0.333   0.313   0.320   0.325   0.301   0.296   0.304   0.301   0.311   0.337   0.332   0.333   0.325   0.326   0.317   0.320   0.309   0.320   0.341   0.351   0.377   0.358   0.368   0.373   0.353   0.388   0.413   0.393   0.380   0.355   0.365   0.372   0.380   0.383   0.401   0.383   0.389   0.423   0.431   0.445   0.462   0.437   0.462   0.452   0.476   0.445   0.450   0.449   0.446   0.427   0.453   0.456   0.464   0.472   0.455   0.416   0.451   0.438   0.448   0.440   0.454   0.468   0.456   0.427   0.416   0.405   0.389   0.421   0.386   0.383   0.369   0.365   0.386   0.384   0.409   0.380   0.353   0.356   0.360   0.380   0.402   0.390   0.397   0.378   0.379   0.354   0.379   0.416   0.430   0.426   0.404   0.416   0.413   0.392   0.355   0.348   0.316   0.315   0.311   0.325   0.328   0.348   0.347   0.376   0.395   0.375   0.350   0.370   0.392   0.393   0.396   0.368   0.390   0.380   0.383   0.378   0.353   0.376   0.372   0.365   0.369   0.373   0.398   0.397   0.372   0.383   0.391   0.408   0.405   0.394   0.410   0.419   0.392   0.381   0.352   0.339   0.333   0.332   0.329   0.361   0.383   0.408   0.401   0.398   0.399   0.406   0.412   0.409   0.395   0.418   0.425   0.425   0.375   0.386   0.375   0.354   0.372   0.357   0.356   0.353   0.345   0.352   0.368   0.340   0.353   0.374   0.372   0.377   0.370   0.342   0.365   0.355
   177.70    0.356   0.363   0.376   0.409   0.397   0.397   0.403   0.421   0.397   0.399   0.377   0.358   0.335   0.345   0.351   0.345   0.360   0.334   0.337   0.309   0.333   0.361   0.347   0.346   0.320   0.322   0.325   0.313   0.336   0.311   0.331   0.322   0.320   0.335   0.321   0.329   0.333   0.302   0.310   0.356   0.362   0.373   0.371   0.369   0.400   0.396   0.404   0.389   0.376   0.356   0.356   0.364   0.365   0.354   0.392   0.378   0.363   0.370   0.387   0.417   0.438   0.437   0.441   0.434   0.451   0.463   0.457   0.453   0.451   0.456   0.476   0.466   0.486   0.465   0.481   0.448   0.461   0.424   0.451   0.458   0.474   0.449   0.453   0.454   0.452   0.437   0.425   0.413   0.425   0.433   0.413   0.372   0.362   0.387   0.384   0.368   0.390   0.357   0.342   0.346   0.372   0.380   0.376   0.399   0.378   0.354   0.361   0.394   0.402   0.400   0.414   0.437   0.410   0.427   0.400   0.374   0.348   0.330   0.310   0.311   0.337   0.344   0.349   0.347   0.387   0.368   0.376   0.369   0.380   0.364   0.373   0.377   0.359   0.384   0.384   0.369   0.372   0.343   0.373   0.367   0.375   0.361   0.375   0.375   0.359   0.371   0.371   0.380   0.401   0.415   0.410   0.401   0.406   0.395   0.368   0.350   0.359   0.344   0.344   0.343   0.368   0.375   0.397   0.418   0.409   0.391   0.417   0.390   0.381   0.397   0.388   0.393   0.404   0.385   0.370   0.358   0.327   0.323   0.362   0.362   0.350   0.376   0.348   0.337   0.359   0.360   0.360   0.354   0.347   0.356   0.359   0.368   0.359
   168.40    0.325   0.349   0.372   0.389   0.401   0.401   0.400   0.397   0.392   0.368   0.376   0.353   0.337   0.322   0.346   0.330   0.345   0.316   0.319   0.327   0.336   0.354   0.382   0.347   0.317   0.337   0.340   0.330   0.342   0.319   0.329   0.326   0.326   0.346   0.343   0.347   0.319   0.317   0.336   0.360   0.368   0.397   0.361   0.379   0.387   0.413   0.414   0.411   0.389   0.378   0.370   0.353   0.352   0.375   0.380   0.411   0.402   0.402   0.377   0.398   0.410   0.420   0.431   0.425   0.411   0.427   0.473   0.471   0.466   0.481   0.489   0.482   0.465   0.474   0.474   0.441   0.437   0.427   0.450   0.454   0.459   0.451   0.418   0.423   0.399   0.438   0.449   0.410   0.433   0.421   0.389   0.375   0.401   0.377   0.376   0.366   0.397   0.356   0.360   0.368   0.343   0.372   0.378   0.404   0.380   0.348   0.382   0.395   0.403   0.378   0.390   0.418   0.385   0.386   0.391   0.372   0.346   0.336   0.310   0.313   0.345   0.354   0.325   0.336   0.360   0.365   0.385   0.372   0.380   0.389   0.382   0.378   0.354   0.373   0.388   0.369   0.381   0.349   0.366   0.388   0.388   0.375   0.378   0.356   0.366   0.404   0.375   0.370   0.396   0.405   0.376   0.376   0.378   0.362   0.357   0.357   0.376   0.359   0.363   0.366   0.370   0.376   0.383   0.393   0.388   0.384   0.394   0.389   0.403   0.412   0.391   0.366   0.383   0.360   0.342   0.337   0.334   0.345   0.378   0.359   0.361   0.357   0.383   0.353   0.342   0.337   0.326   0.355   0.361   0.338   0.339   0.369   0.375
   159.10    0.346   0.357   0.387   0.376   0.386   0.410   0.383   0.377   0.359   0.354   0.340   0.341   0.332   0.334   0.328   0.311   0.320   0.317   0.317   0.336   0.320   0.354   0.356   0.357   0.314   0.322   0.316   0.314   0.315   0.321   0.310   0.335   0.314   0.359   0.363   0.340   0.290   0.341   0.339   0.338   0.386   0.368   0.373   0.378   0.375   0.392   0.379   0.385   0.383   0.401   0.384   0.381   0.358   0.366   0.351   0.382   0.412   0.383   0.399   0.408   0.403   0.409   0.409   0.418   0.417   0.420   0.444   0.467   0.463   0.470   0.464   0.464   0.459   0.466   0.450   0.459   0.457   0.457   0.462   0.458   0.457   0.436   0.384   0.406   0.390   0.390   0.409   0.409   0.408   0.406   0.390   0.404   0.402   0.404   0.377   0.360   0.381   0.361   0.371   0.365   0.366   0.380   0.365   0.376   0.372   0.387   0.388   0.424   0.406   0.384   0.377   0.400   0.392   0.385   0.388   0.363   0.366   0.341   0.319   0.312   0.347   0.363   0.335   0.314   0.328   0.334   0.368   0.373   0.378   0.374   0.369   0.359   0.373   0.409   0.391   0.384   0.372   0.373   0.381   0.370   0.408   0.417   0.375   0.373   0.379   0.390   0.383   0.372   0.395   0.394   0.398   0.386   0.398   0.373   0.354   0.364   0.362   0.332   0.346   0.350   0.353   0.365   0.363   0.384   0.391   0.407   0.386   0.387   0.393   0.400   0.389   0.394   0.379   0.363   0.351   0.348   0.346   0.366   0.376   0.362   0.352   0.374   0.402   0.377   0.353   0.346   0.326   0.335   0.345   0.349   0.331   0.345   0.378
   149.80    0.344   0.372   0.392   0.388   0.401   0.373   0.389   0.357   0.358   0.362   0.330   0.337   0.332   0.337   0.331   0.316   0.320   0.315   0.322   0.320   0.317   0.346   0.361   0.337   0.333   0.325   0.315   0.316   0.300   0.321   0.339   0.337   0.364   0.364   0.345   0.336   0.327   0.332   0.354   0.363   0.365   0.363   0.385   0.397   0.412   0.406   0.397   0.416   0.452   0.431   0.402   0.393   0.380   0.386   0.355   0.393   0.430   0.409   0.393   0.388   0.412   0.418   0.410   0.377   0.390   0.414   0.436   0.461   0.469   0.450   0.490   0.468   0.451   0.445   0.440   0.473   0.494   0.461   0.448   0.435   0.450   0.428   0.404   0.414   0.377   0.365   0.370   0.380   0.404   0.381   0.367   0.387   0.415   0.424   0.387   0.354   0.374   0.341   0.359   0.356   0.370   0.379   0.371   0.374   0.380   0.394   0.417   0.419   0.386   0.372   0.367   0.370   0.378   0.374   0.385   0.374   0.356   0.334   0.318   0.333   0.346   0.331   0.342   0.341   0.349   0.336   0.355   0.352   0.389   0.380   0.366   0.378   0.399   0.402   0.400   0.381   0.392   0.385   0.417   0.399   0.417   0.376   0.382   0.390   0.391   0.382   0.377   0.384   0.402   0.374   0.397   0.409   0.382   0.381   0.367   0.366   0.351   0.329   0.345   0.354   0.372   0.378   0.384   0.421   0.409   0.407   0.418   0.382   0.392   0.390   0.394   0.393   0.363   0.364   0.365   0.367   0.356   0.376   0.394   0.380   0.354   0.370   0.380   0.365   0.351   0.369   0.343   0.342   0.345   0.352   0.369   0.359   0.361
   140.50    0.360   0.362   0.402   0.368   0.386   0.397   0.368   0.358   0.366   0.366   0.317   0.331   0.314   0.349   0.344   0.339   0.314   0.347   0.345   0.344   0.349   0.360   0.345   0.323   0.339   0.350   0.327   0.310   0.316   0.317   0.342   0.323   0.354   0.360   0.321   0.308   0.344   0.355   0.373   0.395   0.400   0.381   0.379   0.392   0.401   0.399   0.418   0.416   0.424   0.425   0.415   0.402   0.378   0.368   0.357   0.370   0.395   0.417   0.384   0.391   0.433   0.422   0.440   0.413   0.394   0.401   0.418   0.434   0.432   0.445   0.463   0.477   0.478   0.458   0.467   0.478   0.479   0.437   0.436   0.434   0.438   0.455   0.436   0.440   0.396   0.366   0.367   0.393   0.377   0.400   0.385   0.357   0.395   0.386   0.404   0.393   0.348   0.343   0.350   0.348   0.358   0.369   0.385   0.379   0.386   0.410   0.420   0.397   0.416   0.421   0.382   0.370   0.373   0.373   0.390   0.364   0.358   0.319   0.309   0.305   0.307   0.320   0.345   0.341   0.321   0.352   0.335   0.381   0.373   0.394   0.397   0.399   0.419   0.394   0.410   0.398   0.398   0.410   0.441   0.419   0.413   0.369   0.376   0.367   0.390   0.374   0.367   0.362   0.377   0.371   0.407   0.406   0.420   0.411   0.375   0.376   0.354   0.354   0.344   0.370   0.369   0.377   0.375   0.392   0.409   0.426   0.414   0.380   0.393   0.377   0.385   0.366   0.374   0.340   0.360   0.370   0.368   0.391   0.396   0.383   0.370   0.375   0.376   0.398   0.391   0.363   0.357   0.357   0.363   0.347   0.389   0.381   0.358
   131.20    0.387   0.379   0.386   0.386   0.378   0.378   0.374   0.374   0.380   0.374   0.321   0.336   0.309   0.332   0.359   0.376   0.347   0.368   0.377   0.372   0.378   0.383   0.371   0.345   0.336   0.332   0.308   0.298   0.318   0.312   0.337   0.330   0.344   0.353   0.340   0.324   0.353   0.364   0.375   0.395   0.398   0.395   0.412   0.408   0.437   0.406   0.421   0.423   0.414   0.415   0.390   0.382   0.374   0.361   0.331   0.360   0.379   0.417   0.410   0.392   0.436   0.385   0.398   0.417   0.430   0.425   0.466   0.434   0.437   0.442   0.437   0.430   0.457   0.455   0.449   0.459   0.447   0.438   0.429   0.453   0.447   0.444   0.422   0.422   0.409   0.382   0.374   0.399   0.380   0.378   0.386   0.371   0.413   0.413   0.383   0.369   0.356   0.338   0.324   0.346   0.371   0.358   0.393   0.409   0.408   0.401   0.413   0.414   0.390   0.410   0.403   0.385   0.368   0.349   0.362   0.376   0.346   0.340   0.328   0.291   0.317   0.309   0.306   0.329   0.328   0.332   0.347   0.353   0.393   0.395   0.402   0.396   0.410   0.393   0.385   0.402   0.404   0.404   0.434   0.432   0.430   0.390   0.366   0.380   0.398   0.407   0.369   0.359   0.389   0.391   0.405   0.389   0.394   0.396   0.367   0.375   0.356   0.354   0.352   0.358   0.354   0.357   0.370   0.358   0.372   0.391   0.399   0.391   0.401   0.400   0.391   0.378   0.383   0.360   0.370   0.343   0.376   0.386   0.401   0.397   0.362   0.381   0.376   0.390   0.371   0.333   0.350   0.339   0.366   0.362   0.361   0.345   0.367
   121.90    0.359   0.377   0.374   0.401   0.377   0.386   0.387   0.393   0.360   0.366   0.340   0.337   0.345   0.322   0.329   0.349   0.374   0.389   0.394   0.388   0.417   0.422   0.382   0.363   0.326   0.317   0.320   0.305   0.314   0.327   0.303   0.317   0.330   0.325   0.339   0.363   0.375   0.389   0.391   0.377   0.420   0.417   0.450   0.421   0.442   0.443   0.447   0.458   0.419   0.434   0.407   0.417   0.417   0.373   0.377   0.388   0.399   0.403   0.377   0.402   0.405   0.389   0.388   0.385   0.432   0.457   0.465   0.469   0.447   0.439   0.420   0.409   0.429   0.470   0.453   0.452   0.416   0.437   0.428   0.442   0.457   0.427   0.440   0.445   0.417   0.418   0.384   0.393   0.380   0.368   0.355   0.373   0.392   0.396   0.378   0.376   0.360   0.327   0.326   0.348   0.344   0.356   0.379   0.396   0.389   0.415   0.408   0.374   0.383   0.409   0.378   0.337   0.351   0.329   0.366   0.377   0.343   0.332   0.311   0.304   0.298   0.319   0.296   0.297   0.317   0.332   0.347   0.333   0.374   0.384   0.382   0.388   0.382   0.402   0.396   0.384   0.431   0.415   0.400   0.400   0.408   0.417   0.392   0.426   0.418   0.382   0.366   0.368   0.389   0.406   0.409   0.359   0.365   0.361   0.363   0.376   0.371   0.350   0.348   0.345   0.343   0.364   0.350   0.363   0.355   0.370   0.364   0.368   0.390   0.384   0.396   0.402   0.390   0.381   0.356   0.356   0.376   0.397   0.392   0.385   0.376   0.375   0.383   0.386   0.367   0.365   0.364   0.332   0.339   0.354   0.356   0.357   0.372
   112.60    0.366   0.386   0.388   0.388   0.389   0.407   0.386   0.404   0.388   0.391   0.347   0.346   0.351   0.318   0.345   0.354   0.376   0.391   0.393   0.424   0.406   0.406   0.404   0.355   0.327   0.313   0.333   0.319   0.321   0.323   0.321   0.330   0.341   0.346   0.360   0.364   0.365   0.360   0.395   0.397   0.412   0.418   0.432   0.433   0.433   0.447   0.452   0.470   0.450   0.413   0.411   0.436   0.427   0.395   0.396   0.400   0.396   0.348   0.379   0.387   0.408   0.411   0.417   0.398   0.411   0.440   0.455   0.442   0.420   0.419   0.398   0.413   0.428   0.439   0.442   0.447   0.443   0.466   0.454   0.460   0.447   0.464   0.478   0.473   0.428   0.404   0.390   0.382   0.385   0.388   0.351   0.366   0.378   0.407   0.404   0.400   0.356   0.338   0.346   0.357   0.336   0.342   0.360   0.357   0.363   0.384   0.382   0.375   0.368   0.377   0.378   0.338   0.361   0.342   0.351   0.340   0.347   0.343   0.337   0.325   0.301   0.312   0.312   0.296   0.310   0.335   0.344   0.343   0.366   0.385   0.409   0.378   0.395   0.393   0.408   0.411   0.411   0.380   0.410   0.398   0.420   0.407   0.399   0.394   0.388   0.404   0.363   0.388   0.374   0.390   0.381   0.379   0.372   0.349   0.355   0.354   0.365   0.364   0.339   0.334   0.360   0.346   0.366   0.353   0.370   0.387   0.369   0.368   0.372   0.381   0.377   0.365   0.364   0.364   0.361   0.373   0.372   0.378   0.382   0.387   0.381   0.388   0.382   0.386   0.353   0.352   0.345   0.342   0.307   0.335   0.350   0.338   0.376
   103.30    0.359   0.372   0.380   0.364   0.397   0.432   0.393   0.401   0.379   0.382   0.375   0.361   0.370   0.351   0.351   0.361   0.391   0.409   0.394   0.421   0.409   0.389   0.384   0.372   0.344   0.346   0.322   0.336   0.319   0.335   0.339   0.335   0.334   0.359   0.383   0.379   0.366   0.383   0.409   0.417   0.444   0.449   0.445   0.420   0.407   0.411   0.431   0.458   0.449   0.442   0.432   0.452   0.442   0.441   0.415   0.385   0.368   0.378   0.399   0.428   0.428   0.423   0.428   0.434   0.399   0.412   0.424   0.392   0.411   0.413   0.419   0.409   0.430   0.416   0.443   0.437   0.438   0.455   0.450   0.464   0.458   0.449   0.472   0.454   0.447   0.408   0.387   0.387   0.399   0.386   0.356   0.390   0.387   0.381   0.374   0.378   0.364   0.325   0.325   0.349   0.349   0.344   0.348   0.324   0.338   0.359   0.370   0.378   0.373   0.371   0.374   0.388   0.367   0.353   0.341   0.351   0.339   0.336   0.352   0.347   0.317   0.311   0.296   0.310   0.310   0.328   0.353   0.366   0.395   0.410   0.411   0.397   0.379   0.384   0.388   0.384   0.391   0.406   0.403   0.412   0.419   0.404   0.399   0.399   0.413   0.395   0.389   0.374   0.384   0.387   0.377   0.380   0.407   0.379   0.348   0.340   0.346   0.345   0.345   0.352   0.352   0.367   0.366   0.372   0.391   0.386   0.377   0.347   0.351   0.356   0.355   0.341   0.344   0.357   0.383   0.340   0.349   0.350   0.373   0.384   0.388   0.392   0.385   0.384   0.353   0.345   0.327   0.337   0.339   0.337   0.352   0.345   0.358
    94.00    0.372   0.362   0.359   0.382   0.415   0.408   0.412   0.413   0.393   0.387   0.392   0.364   0.361   0.365   0.360   0.377   0.406   0.424   0.396   0.431   0.403   0.375   0.375   0.363   0.331   0.353   0.339   0.344   0.339   0.352   0.333   0.312   0.324   0.343   0.358   0.365   0.373   0.381   0.418   0.456   0.444   0.458   0.474   0.428   0.424   0.430   0.415   0.445   0.436   0.452   0.450   0.455   0.453   0.463   0.438   0.421   0.421   0.391   0.396   0.410   0.416   0.421   0.416   0.424   0.419   0.414   0.385   0.376   0.370   0.399   0.427   0.416   0.404   0.408   0.424   0.450   0.459   0.452   0.476   0.458   0.439   0.442   0.441   0.443   0.394   0.390   0.384   0.363   0.391   0.361   0.369   0.391   0.374   0.393   0.373   0.357   0.339   0.335   0.306   0.332   0.354   0.369   0.348   0.366   0.341   0.374   0.364   0.350   0.373   0.375   0.377   0.371   0.335   0.350   0.353   0.344   0.340   0.342   0.331   0.346   0.343   0.310   0.311   0.319   0.331   0.343   0.379   0.350   0.368   0.403   0.407   0.370   0.356   0.376   0.377   0.418   0.421   0.425   0.424   0.417   0.415   0.410   0.389   0.383   0.392   0.390   0.394   0.391   0.393   0.373   0.373   0.372   0.396   0.375   0.378   0.345   0.354   0.351   0.353   0.362   0.355   0.386   0.369   0.364   0.387   0.377   0.379   0.354   0.352   0.357   0.350   0.336   0.338   0.351   0.384   0.351   0.349   0.349   0.341   0.370   0.377   0.400   0.365   0.366   0.339   0.357   0.365   0.357   0.364   0.350   0.347   0.338   0.364
    84.70    0.352   0.378   0.385   0.362   0.381   0.373   0.387   0.380   0.378   0.377   0.370   0.368   0.337   0.362   0.376   0.365   0.403   0.407   0.426   0.424   0.368   0.375   0.395   0.374   0.331   0.345   0.363   0.361   0.347   0.360   0.340   0.318   0.312   0.317   0.354   0.378   0.408   0.427   0.431   0.442   0.472   0.478   0.456   0.472   0.461   0.444   0.439   0.432   0.433   0.457   0.466   0.452   0.456   0.472   0.469   0.448   0.402   0.386   0.377   0.393   0.393   0.405   0.419   0.427   0.435   0.408   0.411   0.382   0.392   0.401   0.416   0.408   0.416   0.403   0.408   0.397   0.416   0.455   0.455   0.438   0.421   0.412   0.394   0.413   0.416   0.408   0.377   0.377   0.379   0.350   0.367   0.366   0.358   0.387   0.404   0.370   0.339   0.337   0.358   0.334   0.358   0.375   0.376   0.343   0.365   0.366   0.337   0.357   0.343   0.339   0.355   0.357   0.353   0.351   0.368   0.360   0.367   0.346   0.351   0.358   0.333   0.329   0.341   0.345   0.367   0.355   0.340   0.342   0.374   0.401   0.397   0.377   0.368   0.396   0.419   0.430   0.422   0.417   0.409   0.408   0.426   0.402   0.385   0.379   0.394   0.385   0.374   0.361   0.367   0.349   0.376   0.373   0.384   0.355   0.371   0.346   0.325   0.341   0.337   0.339   0.364   0.388   0.364   0.385   0.363   0.377   0.393   0.373   0.357   0.364   0.344   0.337   0.338   0.367   0.357   0.354   0.359   0.361   0.373   0.352   0.356   0.376   0.341   0.355   0.335   0.351   0.348   0.390   0.381   0.414   0.396   0.363   0.350
    75.40    0.363   0.390   0.353   0.358   0.379   0.383   0.388   0.368   0.384   0.358   0.355   0.359   0.347   0.363   0.362   0.367   0.391   0.405   0.421   0.389   0.398   0.380   0.373   0.348   0.362   0.360   0.374   0.362   0.361   0.375   0.357   0.333   0.311   0.315   0.397   0.394   0.410   0.428   0.447   0.450   0.479   0.502   0.504   0.508   0.459   0.461   0.443   0.407   0.434   0.437   0.436   0.424   0.439   0.423   0.446   0.439   0.402   0.395   0.382   0.386   0.404   0.416   0.438   0.433   0.412   0.440   0.421   0.394   0.376   0.366   0.422   0.387   0.395   0.401   0.377   0.389   0.420   0.437   0.447   0.441   0.437   0.405   0.405   0.395   0.392   0.394   0.382   0.360   0.347   0.373   0.355   0.347   0.341   0.371   0.383   0.385   0.368   0.332   0.341   0.350   0.354   0.353   0.359   0.354   0.337   0.349   0.359   0.355   0.362   0.367   0.338   0.347   0.358   0.344   0.353   0.351   0.354   0.372   0.346   0.348   0.347   0.347   0.353   0.365   0.348   0.336   0.343   0.355   0.330   0.377   0.380   0.390   0.351   0.377   0.403   0.436   0.429   0.423   0.403   0.391   0.386   0.386   0.382   0.376   0.357   0.369   0.350   0.328   0.355   0.370   0.362   0.371   0.350   0.363   0.339   0.329   0.336   0.321   0.330   0.328   0.354   0.379   0.358   0.373   0.378   0.383   0.378   0.389   0.378   0.369   0.376   0.363   0.361   0.365   0.369   0.359   0.365   0.351   0.369   0.338   0.340   0.359   0.349   0.343   0.373   0.383   0.380   0.361   0.382   0.401   0.404   0.390   0.359
    66.10    0.358   0.362   0.339   0.347   0.347   0.367   0.346   0.366   0.358   0.361   0.372   0.374   0.373   0.368   0.379   0.397   0.378   0.374   0.344   0.393   0.374   0.363   0.366   0.350   0.386   0.362   0.365   0.370   0.376   0.390   0.359   0.351   0.347   0.385   0.416   0.451   0.447   0.444   0.462   0.448   0.461   0.498   0.486   0.477   0.479   0.451   0.425   0.418   0.417   0.432   0.422   0.454   0.438   0.433   0.442   0.418   0.398   0.401   0.372   0.373   0.377   0.363   0.414   0.419   0.402   0.401   0.387   0.406   0.377   0.395   0.396   0.400   0.381   0.371   0.390   0.384   0.426   0.423   0.441   0.411   0.418   0.422   0.409   0.383   0.386   0.388   0.397   0.344   0.360   0.368   0.355   0.343   0.332   0.340   0.392   0.378   0.376   0.351   0.341   0.346   0.336   0.327   0.343   0.345   0.356   0.366   0.355   0.347   0.358   0.349   0.351   0.340   0.344   0.352   0.341   0.347   0.346   0.326   0.351   0.365   0.349   0.351   0.341   0.357   0.339   0.322   0.353   0.338   0.360   0.380   0.374   0.383   0.388   0.400   0.353   0.386   0.414   0.432   0.420   0.386   0.371   0.346   0.354   0.368   0.363   0.345   0.370   0.344   0.337   0.355   0.355   0.355   0.341   0.365   0.332   0.311   0.307   0.322   0.319   0.332   0.325   0.354   0.366   0.366   0.379   0.398   0.357   0.362   0.378   0.373   0.363   0.345   0.366   0.353   0.354   0.350   0.357   0.347   0.375   0.369   0.354   0.359   0.343   0.350   0.382   0.400   0.399   0.399   0.394   0.392   0.390   0.386   0.390
    56.80    0.325   0.352   0.344   0.356   0.330   0.342   0.354   0.370   0.359   0.358   0.376   0.374   0.371   0.371   0.369   0.385   0.362   0.369   0.354   0.361   0.361   0.351   0.352   0.359   0.357   0.358   0.375   0.370   0.369   0.358   0.380   0.395   0.402   0.397   0.461   0.447   0.454   0.450   0.461   0.448   0.459   0.474   0.473   0.477   0.463   0.456   0.440   0.399   0.399   0.402   0.445   0.445   0.445   0.430   0.417   0.425   0.426   0.421   0.413   0.381   0.375   0.381   0.371   0.403   0.412   0.400   0.355   0.378   0.393   0.383   0.407   0.409   0.393   0.394   0.401   0.428   0.433   0.449   0.434   0.405   0.428   0.395   0.382   0.386   0.372   0.365   0.368   0.341   0.360   0.360   0.352   0.354   0.338   0.359   0.347   0.338   0.339   0.346   0.337   0.328   0.324   0.320   0.337   0.346   0.372   0.366   0.338   0.354   0.364   0.350   0.343   0.344   0.374   0.381   0.352   0.341   0.324   0.301   0.331   0.339   0.348   0.360   0.347   0.374   0.351   0.339   0.345   0.342   0.328   0.358   0.382   0.356   0.387   0.392   0.386   0.382   0.399   0.404   0.411   0.354   0.382   0.358   0.372   0.371   0.353   0.341   0.369   0.343   0.332   0.333   0.332   0.354   0.355   0.328   0.335   0.305   0.310   0.321   0.320   0.327   0.325   0.355   0.381   0.381   0.377   0.374   0.368   0.375   0.384   0.369   0.357   0.364   0.341   0.346   0.365   0.345   0.365   0.340   0.370   0.375   0.363   0.353   0.352   0.350   0.368   0.359   0.374   0.372   0.388   0.387   0.378   0.354   0.365
    47.50    0.303   0.340   0.346   0.325   0.337   0.338   0.338   0.353   0.343   0.361   0.364   0.362   0.379   0.378   0.411   0.355   0.351   0.345   0.338   0.342   0.354   0.338   0.361   0.371   0.353   0.346   0.354   0.382   0.348   0.376   0.373   0.403   0.410   0.431   0.443   0.436   0.468   0.446   0.461   0.467   0.463   0.488   0.463   0.464   0.431   0.425   0.425   0.431   0.411   0.402   0.435   0.454   0.425   0.401   0.408   0.393   0.402   0.422   0.419   0.401   0.411   0.399   0.368   0.371   0.393   0.409   0.384   0.385   0.401   0.381   0.415   0.416   0.406   0.388   0.412   0.415   0.424   0.420   0.387   0.409   0.415   0.389   0.389   0.374   0.382   0.370   0.378   0.385   0.347   0.385   0.381   0.372   0.370   0.361   0.358   0.334   0.325   0.339   0.351   0.349   0.362   0.340   0.337   0.371   0.375   0.364   0.351   0.348   0.369   0.364   0.355   0.375   0.358   0.354   0.347   0.344   0.336   0.333   0.322   0.335   0.371   0.362   0.354   0.346   0.360   0.370   0.364   0.371   0.367   0.362   0.376   0.375   0.384   0.397   0.399   0.391   0.402   0.389   0.397   0.375   0.347   0.359   0.374   0.376   0.339   0.349   0.334   0.304   0.313   0.320   0.317   0.333   0.332   0.311   0.322   0.322   0.332   0.333   0.326   0.333   0.321   0.332   0.343   0.380   0.370   0.364   0.368   0.376   0.401   0.355   0.361   0.371   0.355   0.351   0.360   0.349   0.338   0.351   0.381   0.377   0.364   0.358   0.329   0.337   0.359   0.359   0.365   0.357   0.390   0.379   0.382   0.369   0.375
    38.20    0.325   0.325   0.346   0.364   0.351   0.337   0.353   0.348   0.342   0.348   0.377   0.339   0.378   0.380   0.382   0.375   0.366   0.344   0.342   0.360   0.362   0.384   0.358   0.360   0.359   0.365   0.359   0.376   0.364   0.374   0.382   0.419   0.432   0.438   0.449   0.461   0.482   0.477   0.468   0.448   0.469   0.462   0.465   0.448   0.421   0.432   0.425   0.426   0.449   0.424   0.423   0.428   0.456   0.440   0.412   0.411   0.417   0.400   0.434   0.425   0.440   0.402   0.390   0.389   0.378   0.396   0.399   0.407   0.408   0.410   0.418   0.400   0.418   0.400   0.394   0.407   0.401   0.401   0.382   0.384   0.381   0.407   0.411   0.401   0.397   0.388   0.370   0.378   0.369   0.363   0.394   0.382   0.372   0.371   0.373   0.358   0.309   0.328   0.345   0.349   0.367   0.358   0.360   0.371   0.385   0.362   0.363   0.354   0.373   0.360   0.363   0.348   0.345   0.337   0.352   0.339   0.321   0.345   0.349   0.337   0.350   0.348   0.348   0.357   0.345   0.362   0.379   0.367   0.367   0.356   0.374   0.379   0.390   0.387   0.395   0.395   0.421   0.392   0.374   0.362   0.360   0.348   0.355   0.363   0.327   0.333   0.334   0.307   0.297   0.317   0.323   0.352   0.350   0.327   0.316   0.321   0.334   0.359   0.331   0.335   0.339   0.326   0.352   0.366   0.400   0.373   0.380   0.391   0.363   0.363   0.378   0.368   0.380   0.367   0.379   0.368   0.369   0.354   0.387   0.370   0.348   0.335   0.334   0.325   0.344   0.375   0.378   0.377   0.370   0.357   0.358   0.366   0.369
    28.90    0.331   0.323   0.316   0.354   0.372   0.377   0.344   0.344   0.333   0.335   0.365   0.350   0.351   0.371   0.349   0.357   0.373   0.365   0.375   0.404   0.392   0.363   0.359   0.365   0.373   0.351   0.361   0.377   0.389   0.387   0.391   0.414   0.418   0.441   0.455   0.461   0.465   0.485   0.462   0.434   0.448   0.424   0.433   0.409   0.409   0.418   0.414   0.435   0.436   0.455   0.455   0.463   0.453   0.421   0.425   0.408   0.411   0.398   0.400   0.429   0.444   0.432   0.399   0.406   0.388   0.406   0.415   0.425   0.439   0.427   0.394   0.419   0.383   0.392   0.396   0.398   0.394   0.383   0.406   0.386   0.366   0.383   0.416   0.418   0.417   0.412   0.385   0.372   0.383   0.357   0.380   0.390   0.379   0.390   0.372   0.372   0.359   0.371   0.364   0.348   0.361   0.365   0.369   0.355   0.398   0.344   0.349   0.357   0.372   0.344   0.360   0.343   0.347   0.354   0.364   0.347   0.330   0.341   0.349   0.369   0.375   0.372   0.385   0.366   0.347   0.343   0.370   0.383   0.396   0.365   0.387   0.398   0.388   0.369   0.367   0.394   0.394   0.390   0.387   0.367   0.358   0.366   0.353   0.337   0.330   0.328   0.334   0.312   0.309   0.330   0.338   0.359   0.359   0.317   0.319   0.338   0.334   0.334   0.331   0.362   0.345   0.342   0.337   0.359   0.362   0.378   0.370   0.379   0.363   0.354   0.341   0.379   0.333   0.358   0.360   0.374   0.365   0.364   0.373   0.356   0.362   0.326   0.327   0.333   0.364   0.367   0.376   0.362   0.365   0.372   0.366   0.349   0.359
    19.60    0.341   0.348   0.378   0.377   0.378   0.355   0.374   0.344   0.322   0.326   0.334   0.329   0.356   0.343   0.352   0.348   0.375   0.380   0.393   0.377   0.389   0.385   0.365   0.354   0.352   0.364   0.367   0.402   0.386   0.383   0.414   0.420   0.477   0.449   0.439   0.433   0.451   0.461   0.444   0.433   0.432   0.423   0.426   0.412   0.417   0.423   0.424   0.426   0.439   0.442   0.452   0.451   0.428   0.413   0.432   0.420   0.389   0.397   0.409   0.421   0.440   0.419   0.420   0.390   0.388   0.409   0.410   0.424   0.413   0.403   0.425   0.430   0.433   0.427   0.427   0.425   0.421   0.408   0.393   0.375   0.368   0.407   0.432   0.423   0.418   0.412   0.409   0.394   0.379   0.368   0.391   0.371   0.411   0.416   0.382   0.397   0.398   0.395   0.404   0.390   0.376   0.355   0.345   0.363   0.385   0.360   0.348   0.348   0.370   0.339   0.353   0.362   0.343   0.346   0.363   0.357   0.374   0.373   0.354   0.350   0.377   0.362   0.360   0.381   0.385   0.376   0.376   0.379   0.384   0.386   0.394   0.395   0.372   0.357   0.370   0.391   0.385   0.376   0.365   0.360   0.353   0.354   0.321   0.328   0.338   0.323   0.333   0.326   0.334   0.333   0.343   0.348   0.347   0.319   0.334   0.335   0.341   0.359   0.357   0.370   0.367   0.373   0.354   0.361   0.378   0.368   0.366   0.362   0.364   0.349   0.324   0.345   0.360   0.359   0.385   0.376   0.376   0.345   0.348   0.338   0.307   0.326   0.345   0.346   0.343   0.353   0.373   0.339   0.349   0.359   0.367   0.376   0.371
    10.30    0.357   0.367   0.369   0.354   0.368   0.381   0.373   0.378   0.345   0.339   0.350   0.349   0.344   0.359   0.347   0.361   0.385   0.412   0.411   0.403   0.399   0.371   0.376   0.374   0.384   0.375   0.401   0.407   0.385   0.402   0.399   0.450   0.491   0.487   0.470   0.442   0.447   0.425   0.433   0.448   0.438   0.456   0.420   0.415   0.397   0.420   0.414   0.420   0.419   0.429   0.452   0.449   0.433   0.408   0.424   0.414   0.374   0.377   0.392   0.399   0.408   0.415   0.421   0.399   0.397   0.406   0.414   0.425   0.429   0.394   0.417   0.415   0.454   0.436   0.427   0.429   0.434   0.419   0.397   0.402   0.377   0.403   0.428   0.451   0.425   0.415   0.405   0.396   0.393   0.393   0.396   0.389   0.398   0.401   0.389   0.403   0.415   0.407   0.391   0.412   0.368   0.355   0.377   0.363   0.343   0.341   0.356   0.352   0.363   0.369   0.361   0.366   0.352   0.367   0.376   0.371   0.374   0.351   0.349   0.368   0.361   0.352   0.364   0.362   0.358   0.372   0.374   0.383   0.389   0.391   0.406   0.383   0.392   0.377   0.371   0.391   0.398   0.378   0.381   0.357   0.336   0.336   0.295   0.311   0.329   0.329   0.315   0.319   0.327   0.352   0.372   0.377   0.371   0.369   0.375   0.345   0.365   0.371   0.374   0.347   0.394   0.396   0.394   0.384   0.351   0.352   0.350   0.373   0.365   0.371   0.358   0.354   0.379   0.367   0.375   0.356   0.369   0.351   0.339   0.326   0.303   0.331   0.327   0.337   0.325   0.346   0.359   0.349   0.344   0.361   0.349   0.366   0.357
     1.00    0.382   0.367   0.376   0.353   0.370   0.389   0.405   0.369   0.348   0.341   0.351   0.358   0.354   0.354   0.373   0.378   0.397   0.420   0.421   0.376   0.390   0.394   0.362   0.335   0.369   0.367   0.376   0.402   0.399   0.394   0.418   0.442   0.445   0.482   0.485   0.466   0.450   0.417   0.411   0.447   0.446   0.449   0.427   0.448   0.409   0.417   0.419   0.423   0.438   0.441   0.442   0.423   0.409   0.397   0.425   0.413   0.376   0.400   0.393   0.399   0.399   0.396   0.426   0.398   0.416   0.416   0.407   0.424   0.440   0.434   0.417   0.407   0.419   0.441   0.439   0.460   0.444   0.427   0.415   0.410   0.399   0.431   0.417   0.423   0.420   0.438   0.420   0.408   0.387   0.387   0.386   0.394   0.425   0.417   0.385   0.394   0.414   0.397   0.407   0.375   0.378   0.364   0.357   0.344   0.337   0.342   0.362   0.351   0.336   0.347   0.367   0.341   0.367   0.350   0.378   0.372   0.389   0.388   0.385   0.375   0.340   0.329   0.362   0.395   0.353   0.378   0.390   0.383   0.397   0.395   0.382   0.396   0.418   0.411   0.410   0.382   0.409   0.398   0.365   0.361   0.343   0.325   0.316   0.313   0.307   0.343   0.303   0.313   0.326   0.334   0.377   0.378   0.361   0.350   0.357   0.356   0.365   0.379   0.389   0.372   0.383   0.413   0.396   0.363   0.378   0.345   0.344   0.364   0.357   0.348   0.352   0.337   0.350   0.376   0.361   0.351   0.376   0.354   0.342   0.326   0.325   0.335   0.331   0.300   0.327   0.339   0.363   0.334   0.375   0.376   0.399   0.372   0.377

   Height   Standard deviation at grid points for the v component:
   354.40    0.313   0.310   0.310   0.307   0.307   0.312   0.311   0.302   0.306   0.317   0.318   0.309   0.307   0.310   0.326   0.309   0.296   0.283   0.296   0.298   0.299   0.284   0.248   0.255   0.282   0.290   0.305   0.302   0.324   0.318   0.325   0.291   0.298   0.296   0.298   0.314   0.309   0.311   0.307   0.308   0.318   0.313   0.311   0.308   0.322   0.309   0.306   0.306   0.310   0.302   0.320   0.334   0.338   0.339   0.334   0.316   0.317   0.302   0.296   0.312   0.320   0.320   0.320   0.333   0.335   0.328   0.327   0.336   0.332   0.327   0.320   0.309   0.323   0.337   0.328   0.340   0.329   0.331   0.343   0.330   0.314   0.301   0.289   0.285   0.280   0.286   0.294   0.289   0.278   0.286   0.272   0.287   0.299   0.298   0.295   0.304   0.305   0.321   0.323   0.322   0.308   0.295   0.305   0.293   0.290   0.284   0.281   0.280   0.290   0.278   0.298   0.318   0.327   0.298   0.307   0.277   0.285   0.300   0.314   0.309   0.301   0.297   0.300   0.315   0.302   0.312   0.307   0.315   0.325   0.335   0.325   0.337   0.314   0.322   0.326   0.324   0.308   0.308   0.309   0.319   0.339   0.326   0.327   0.333   0.333   0.314   0.319   0.304   0.281   0.292   0.297   0.294   0.283   0.301   0.301   0.309   0.308   0.323   0.307   0.309   0.313   0.327   0.322   0.322   0.308   0.298   0.313   0.317   0.309   0.332   0.325   0.319   0.322   0.305   0.303   0.314   0.320   0.322   0.317   0.316   0.292   0.277   0.274   0.287   0.280   0.291   0.296   0.290   0.304   0.304   0.297   0.311   0.318
   345.10    0.313   0.317   0.308   0.318   0.308   0.312   0.308   0.307   0.299   0.295   0.299   0.292   0.303   0.300   0.300   0.307   0.307   0.312   0.299   0.284   0.300   0.297   0.278   0.263   0.275   0.296   0.297   0.303   0.324   0.318   0.322   0.306   0.290   0.283   0.302   0.296   0.301   0.297   0.306   0.296   0.308   0.316   0.307   0.297   0.312   0.302   0.308   0.314   0.310   0.309   0.312   0.301   0.327   0.326   0.338   0.311   0.308   0.306   0.299   0.307   0.316   0.328   0.327   0.335   0.312   0.316   0.321   0.338   0.309   0.317   0.335   0.315   0.327   0.337   0.323   0.330   0.331   0.315   0.342   0.330   0.324   0.317   0.303   0.288   0.262   0.274   0.278   0.269   0.277   0.278   0.275   0.280   0.301   0.308   0.295   0.295   0.315   0.314   0.321   0.331   0.310   0.306   0.292   0.292   0.296   0.290   0.273   0.279   0.288   0.292   0.310   0.308   0.311   0.295   0.287   0.289   0.274   0.295   0.309   0.309   0.313   0.324   0.323   0.309   0.308   0.318   0.314   0.318   0.325   0.334   0.329   0.329   0.333   0.331   0.340   0.327   0.313   0.329   0.320   0.334   0.334   0.321   0.335   0.322   0.332   0.326   0.317   0.321   0.303   0.307   0.307   0.297   0.296   0.301   0.303   0.321   0.310   0.306   0.314   0.308   0.310   0.328   0.323   0.319   0.314   0.328   0.325   0.336   0.324   0.337   0.329   0.319   0.325   0.304   0.313   0.302   0.321   0.323   0.320   0.305   0.299   0.278   0.282   0.282   0.295   0.281   0.290   0.299   0.310   0.292   0.301   0.304   0.320
   335.80    0.317   0.304   0.301   0.316   0.312   0.297   0.293   0.297   0.300   0.291   0.276   0.293   0.293   0.295   0.293   0.293   0.294   0.309   0.304   0.299   0.294   0.290   0.271   0.278   0.281   0.294   0.304   0.302   0.306   0.332   0.323   0.313   0.296   0.299   0.278   0.280   0.293   0.288   0.292   0.295   0.299   0.303   0.315   0.311   0.311   0.301   0.313   0.307   0.328   0.346   0.320   0.340   0.331   0.326   0.332   0.328   0.315   0.298   0.302   0.303   0.293   0.318   0.322   0.335   0.336   0.324   0.320   0.331   0.310   0.322   0.314   0.321   0.310   0.313   0.307   0.321   0.316   0.323   0.325   0.318   0.326   0.328   0.316   0.300   0.269   0.262   0.273   0.262   0.275   0.278   0.282   0.285   0.298   0.306   0.311   0.317   0.323   0.321   0.318   0.330   0.319   0.303   0.295   0.300   0.283   0.285   0.281   0.294   0.304   0.301   0.292   0.299   0.311   0.306   0.283   0.295   0.304   0.300   0.309   0.316   0.324   0.331   0.323   0.310   0.320   0.317   0.338   0.326   0.326   0.325   0.334   0.337   0.322   0.332   0.343   0.332   0.324   0.332   0.323   0.323   0.332   0.321   0.329   0.338   0.313   0.326   0.331   0.310   0.306   0.312   0.290   0.293   0.304   0.313   0.308   0.304   0.309   0.311   0.310   0.308   0.297   0.328   0.325   0.323   0.312   0.323   0.331   0.321   0.329   0.342   0.345   0.337   0.334   0.322   0.311   0.325   0.317   0.317   0.328   0.325   0.300   0.288   0.303   0.306   0.303   0.290   0.293   0.301   0.304   0.305   0.307   0.301   0.317
   326.50    0.311   0.312   0.311   0.319   0.325   0.308   0.288   0.296   0.306   0.293   0.297   0.297   0.293   0.308   0.282   0.287   0.311   0.316   0.300   0.303   0.302   0.287   0.275   0.282   0.282   0.288   0.299   0.300   0.311   0.325   0.327   0.316   0.310   0.297   0.291   0.279   0.285   0.291   0.285   0.307   0.290   0.300   0.302   0.296   0.300   0.305   0.307   0.319   0.338   0.327   0.337   0.346   0.343   0.330   0.332   0.334   0.314   0.314   0.291   0.298   0.298   0.291   0.309   0.306   0.295   0.307   0.296   0.322   0.327   0.315   0.327   0.315   0.304   0.312   0.311   0.314   0.327   0.324   0.336   0.327   0.329   0.318   0.305   0.320   0.282   0.271   0.278   0.290   0.288   0.274   0.272   0.278   0.300   0.309   0.301   0.312   0.311   0.313   0.329   0.330   0.316   0.307   0.322   0.298   0.301   0.294   0.307   0.308   0.308   0.305   0.304   0.299   0.316   0.301   0.285   0.291   0.318   0.299   0.327   0.352   0.336   0.315   0.333   0.319   0.318   0.328   0.329   0.327   0.315   0.331   0.336   0.333   0.328   0.322   0.319   0.323   0.344   0.344   0.331   0.317   0.333   0.318   0.324   0.334   0.319   0.324   0.333   0.321   0.306   0.308   0.292   0.295   0.323   0.303   0.307   0.301   0.325   0.317   0.302   0.311   0.316   0.352   0.344   0.345   0.345   0.342   0.320   0.332   0.327   0.326   0.316   0.321   0.324   0.305   0.308   0.312   0.319   0.323   0.322   0.314   0.309   0.312   0.299   0.285   0.283   0.291   0.292   0.300   0.302   0.307   0.320   0.312   0.310
[...]
   103.30    0.196   0.199   0.195   0.196   0.194   0.190   0.194   0.188   0.187   0.189   0.189   0.190   0.189   0.186   0.187   0.187   0.188   0.184   0.192   0.187   0.193   0.196   0.199   0.199   0.199   0.192   0.200   0.195   0.196   0.189   0.194   0.189   0.181   0.185   0.182   0.189   0.189   0.191   0.193   0.196   0.186   0.187   0.185   0.187   0.188   0.194   0.190   0.192   0.190   0.194   0.188   0.190   0.192   0.196   0.191   0.193   0.188   0.187   0.186   0.185   0.195   0.194   0.186   0.191   0.195   0.186   0.181   0.185   0.191   0.188   0.188   0.194   0.195   0.190   0.194   0.185   0.190   0.197   0.187   0.183   0.192   0.197   0.189   0.190   0.195   0.193   0.191   0.187   0.191   0.192   0.188   0.187   0.186   0.197   0.195   0.186   0.190   0.189   0.182   0.186   0.185   0.183   0.182   0.185   0.183   0.190   0.185   0.185   0.184   0.185   0.191   0.192   0.189   0.193   0.187   0.183   0.193   0.188   0.182   0.188   0.183   0.187   0.181   0.186   0.189   0.188   0.195   0.187   0.190   0.189   0.181   0.187   0.180   0.188   0.184   0.182   0.175   0.174   0.178   0.177   0.184   0.188   0.188   0.192   0.184   0.181   0.187   0.189   0.193   0.195   0.198   0.190   0.187   0.185   0.181   0.189   0.188   0.191   0.194   0.198   0.192   0.200   0.197   0.198   0.194   0.197   0.194   0.196   0.190   0.183   0.188   0.188   0.196   0.195   0.201   0.194   0.200   0.201   0.208   0.202   0.192   0.190   0.193   0.196   0.195   0.197   0.195   0.196   0.198   0.204   0.197   0.191   0.190
    94.00    0.196   0.193   0.192   0.193   0.194   0.196   0.196   0.186   0.181   0.184   0.184   0.187   0.184   0.190   0.189   0.184   0.189   0.186   0.192   0.192   0.192   0.195   0.196   0.195   0.193   0.192   0.191   0.193   0.192   0.191   0.190   0.187   0.184   0.182   0.182   0.184   0.186   0.196   0.195   0.192   0.184   0.184   0.197   0.189   0.192   0.192   0.191   0.190   0.190   0.187   0.194   0.194   0.192   0.191   0.191   0.192   0.192   0.186   0.191   0.186   0.189   0.187   0.183   0.185   0.187   0.189   0.182   0.185   0.193   0.191   0.190   0.196   0.193   0.190   0.189   0.188   0.186   0.189   0.189   0.188   0.193   0.194   0.195   0.193   0.195   0.193   0.192   0.195   0.191   0.190   0.186   0.188   0.182   0.186   0.187   0.180   0.184   0.181   0.181   0.183   0.180   0.179   0.186   0.184   0.181   0.190   0.185   0.181   0.182   0.186   0.184   0.193   0.192   0.192   0.185   0.191   0.191   0.188   0.194   0.185   0.188   0.189   0.183   0.192   0.187   0.187   0.189   0.190   0.185   0.185   0.189   0.186   0.190   0.190   0.181   0.181   0.179   0.181   0.180   0.181   0.183   0.182   0.188   0.189   0.187   0.189   0.189   0.188   0.188   0.199   0.195   0.191   0.189   0.192   0.180   0.187   0.190   0.188   0.194   0.198   0.193   0.199   0.200   0.200   0.197   0.197   0.199   0.195   0.188   0.189   0.189   0.192   0.194   0.196   0.190   0.197   0.201   0.203   0.204   0.199   0.193   0.187   0.196   0.198   0.201   0.192   0.196   0.200   0.198   0.200   0.193   0.188   0.189
    84.70    0.193   0.189   0.190   0.187   0.192   0.188   0.193   0.187   0.183   0.180   0.188   0.185   0.184   0.182   0.184   0.187   0.190   0.186   0.191   0.189   0.192   0.191   0.191   0.194   0.192   0.186   0.192   0.185   0.184   0.188   0.188   0.191   0.194   0.178   0.188   0.189   0.191   0.186   0.196   0.192   0.188   0.195   0.189   0.194   0.192   0.187   0.188   0.190   0.196   0.194   0.194   0.192   0.190   0.190   0.190   0.189   0.193   0.194   0.195   0.191   0.191   0.182   0.188   0.192   0.192   0.193   0.191   0.186   0.188   0.191   0.189   0.194   0.191   0.191   0.188   0.185   0.182   0.186   0.187   0.188   0.193   0.197   0.192   0.191   0.193   0.191   0.194   0.193   0.191   0.192   0.184   0.178   0.178   0.183   0.188   0.193   0.186   0.178   0.187   0.188   0.179   0.182   0.184   0.192   0.190   0.193   0.193   0.187   0.182   0.183   0.179   0.185   0.188   0.187   0.189   0.192   0.195   0.195   0.184   0.186   0.186   0.189   0.188   0.187   0.188   0.187   0.187   0.184   0.179   0.182   0.182   0.191   0.194   0.190   0.185   0.185   0.180   0.176   0.182   0.177   0.180   0.182   0.187   0.192   0.193   0.187   0.194   0.190   0.194   0.196   0.188   0.188   0.189   0.196   0.191   0.190   0.186   0.195   0.191   0.192   0.194   0.197   0.198   0.195   0.192   0.197   0.198   0.193   0.189   0.184   0.192   0.192   0.193   0.192   0.195   0.200   0.199   0.199   0.199   0.194   0.191   0.189   0.193   0.196   0.193   0.199   0.198   0.191   0.196   0.201   0.191   0.193   0.195
    75.40    0.188   0.190   0.187   0.190   0.192   0.187   0.186   0.189   0.182   0.180   0.186   0.181   0.182   0.183   0.188   0.187   0.184   0.184   0.183   0.185   0.187   0.191   0.188   0.192   0.189   0.186   0.182   0.179   0.187   0.186   0.184   0.187   0.192   0.183   0.182   0.189   0.185   0.189   0.190   0.192   0.192   0.194   0.192   0.191   0.197   0.199   0.196   0.189   0.194   0.189   0.192   0.192   0.186   0.191   0.183   0.184   0.190   0.191   0.193   0.191   0.196   0.188   0.185   0.187   0.186   0.191   0.189   0.189   0.195   0.194   0.194   0.196   0.196   0.196   0.187   0.185   0.178   0.185   0.189   0.194   0.192   0.191   0.190   0.183   0.184   0.183   0.191   0.188   0.189   0.186   0.190   0.182   0.185   0.181   0.187   0.184   0.187   0.179   0.184   0.188   0.188   0.185   0.186   0.190   0.187   0.193   0.191   0.192   0.184   0.183   0.185   0.183   0.185   0.195   0.194   0.188   0.188   0.193   0.195   0.192   0.190   0.195   0.193   0.187   0.186   0.191   0.190   0.187   0.185   0.184   0.181   0.190   0.187   0.186   0.190   0.182   0.184   0.186   0.188   0.183   0.187   0.188   0.196   0.191   0.192   0.189   0.189   0.194   0.188   0.189   0.186   0.188   0.186   0.191   0.187   0.190   0.181   0.187   0.191   0.191   0.189   0.197   0.197   0.196   0.196   0.200   0.194   0.201   0.191   0.190   0.194   0.186   0.191   0.189   0.195   0.198   0.196   0.200   0.194   0.190   0.192   0.188   0.191   0.195   0.198   0.197   0.198   0.194   0.198   0.199   0.191   0.193   0.191
    66.10    0.190   0.191   0.189   0.185   0.189   0.182   0.187   0.187   0.188   0.189   0.186   0.180   0.184   0.185   0.189   0.183   0.183   0.185   0.190   0.186   0.186   0.188   0.184   0.189   0.190   0.190   0.189   0.185   0.182   0.184   0.183   0.184   0.186   0.183   0.187   0.189   0.194   0.190   0.191   0.190   0.189   0.195   0.199   0.191   0.197   0.194   0.187   0.191   0.194   0.192   0.192   0.187   0.187   0.187   0.187   0.192   0.191   0.190   0.191   0.188   0.187   0.190   0.192   0.186   0.192   0.193   0.186   0.190   0.201   0.200   0.198   0.197   0.198   0.196   0.192   0.194   0.188   0.189   0.191   0.194   0.183   0.190   0.186   0.181   0.184   0.182   0.185   0.188   0.188   0.190   0.192   0.186   0.186   0.183   0.189   0.188   0.180   0.183   0.186   0.183   0.190   0.185   0.181   0.190   0.192   0.192   0.194   0.191   0.178   0.183   0.183   0.182   0.184   0.187   0.189   0.188   0.188   0.188   0.195   0.192   0.182   0.177   0.188   0.189   0.187   0.186   0.194   0.192   0.189   0.189   0.192   0.191   0.190   0.187   0.193   0.188   0.191   0.185   0.185   0.189   0.191   0.194   0.190   0.191   0.193   0.200   0.194   0.195   0.191   0.186   0.185   0.195   0.191   0.186   0.192   0.194   0.191   0.186   0.185   0.190   0.188   0.192   0.198   0.194   0.196   0.196   0.197   0.197   0.196   0.194   0.189   0.190   0.195   0.194   0.204   0.202   0.200   0.196   0.196   0.186   0.188   0.188   0.190   0.192   0.194   0.195   0.197   0.184   0.194   0.198   0.199   0.194   0.195
    56.80    0.190   0.192   0.180   0.185   0.187   0.186   0.189   0.184   0.192   0.190   0.180   0.185   0.187   0.188   0.187   0.184   0.182   0.186   0.185   0.187   0.184   0.178   0.182   0.187   0.188   0.191   0.186   0.188   0.189   0.183   0.184   0.183   0.184   0.191   0.186   0.189   0.188   0.189   0.183   0.188   0.192   0.195   0.194   0.192   0.190   0.194   0.198   0.202   0.196   0.194   0.197   0.190   0.188   0.183   0.183   0.189   0.188   0.184   0.188   0.178   0.183   0.187   0.187   0.187   0.194   0.197   0.187   0.195   0.195   0.192   0.200   0.199   0.200   0.200   0.198   0.191   0.195   0.191   0.190   0.191   0.190   0.188   0.189   0.184   0.184   0.183   0.186   0.186   0.186   0.192   0.189   0.187   0.190   0.189   0.192   0.188   0.191   0.189   0.184   0.182   0.181   0.181   0.181   0.190   0.187   0.192   0.196   0.191   0.185   0.177   0.177   0.180   0.179   0.186   0.184   0.183   0.181   0.182   0.183   0.189   0.177   0.180   0.187   0.186   0.185   0.191   0.194   0.196   0.193   0.189   0.192   0.188   0.189   0.193   0.190   0.189   0.188   0.189   0.190   0.192   0.193   0.197   0.195   0.197   0.193   0.197   0.195   0.193   0.191   0.188   0.191   0.197   0.190   0.192   0.197   0.195   0.188   0.189   0.186   0.191   0.190   0.193   0.194   0.196   0.200   0.194   0.195   0.197   0.201   0.198   0.193   0.190   0.191   0.199   0.203   0.195   0.193   0.194   0.193   0.189   0.183   0.192   0.197   0.193   0.189   0.198   0.200   0.190   0.198   0.194   0.196   0.198   0.197
    47.50    0.189   0.189   0.184   0.180   0.186   0.182   0.183   0.188   0.184   0.184   0.186   0.186   0.187   0.191   0.187   0.187   0.190   0.183   0.184   0.186   0.184   0.176   0.178   0.189   0.188   0.183   0.182   0.181   0.186   0.188   0.188   0.186   0.186   0.193   0.187   0.187   0.190   0.187   0.182   0.186   0.189   0.184   0.184   0.185   0.186   0.193   0.202   0.205   0.196   0.196   0.195   0.189   0.193   0.190   0.182   0.185   0.184   0.184   0.186   0.183   0.184   0.184   0.185   0.182   0.191   0.197   0.193   0.190   0.192   0.195   0.198   0.199   0.195   0.200   0.196   0.194   0.195   0.189   0.188   0.190   0.186   0.188   0.184   0.188   0.189   0.184   0.188   0.183   0.186   0.194   0.196   0.191   0.188   0.195   0.189   0.187   0.190   0.185   0.183   0.180   0.184   0.186   0.190   0.185   0.187   0.190   0.193   0.188   0.182   0.179   0.181   0.184   0.183   0.181   0.180   0.178   0.186   0.186   0.188   0.188   0.190   0.184   0.186   0.187   0.188   0.187   0.194   0.185   0.191   0.190   0.192   0.190   0.194   0.190   0.192   0.185   0.188   0.196   0.195   0.198   0.198   0.195   0.195   0.198   0.201   0.196   0.194   0.191   0.192   0.188   0.193   0.197   0.197   0.199   0.194   0.191   0.192   0.190   0.187   0.196   0.195   0.197   0.194   0.202   0.198   0.194   0.201   0.197   0.202   0.197   0.197   0.196   0.190   0.196   0.200   0.200   0.191   0.195   0.192   0.194   0.185   0.196   0.198   0.194   0.191   0.196   0.195   0.197   0.200   0.192   0.191   0.196   0.201
    38.20    0.185   0.186   0.190   0.185   0.186   0.189   0.182   0.187   0.192   0.191   0.194   0.191   0.198   0.193   0.189   0.192   0.187   0.190   0.189   0.183   0.179   0.180   0.183   0.186   0.185   0.182   0.178   0.184   0.184   0.182   0.185   0.188   0.184   0.182   0.189   0.186   0.186   0.186   0.186   0.183   0.177   0.177   0.180   0.187   0.188   0.192   0.196   0.194   0.193   0.187   0.186   0.183   0.189   0.194   0.190   0.192   0.184   0.188   0.184   0.181   0.186   0.186   0.184   0.183   0.192   0.194   0.187   0.189   0.186   0.178   0.192   0.197   0.203   0.203   0.196   0.201   0.198   0.188   0.184   0.185   0.187   0.191   0.187   0.186   0.190   0.188   0.183   0.181   0.179   0.184   0.188   0.192   0.188   0.186   0.186   0.189   0.186   0.186   0.187   0.192   0.185   0.181   0.179   0.187   0.191   0.187   0.184   0.186   0.179   0.184   0.188   0.187   0.182   0.182   0.184   0.184   0.188   0.187   0.183   0.190   0.185   0.188   0.183   0.187   0.185   0.184   0.188   0.187   0.183   0.184   0.186   0.187   0.190   0.195   0.190   0.185   0.185   0.204   0.200   0.201   0.197   0.194   0.196   0.196   0.198   0.198   0.194   0.192   0.194   0.187   0.194   0.196   0.197   0.193   0.199   0.193   0.188   0.196   0.191   0.193   0.191   0.193   0.197   0.200   0.202   0.196   0.198   0.204   0.204   0.205   0.198   0.192   0.197   0.196   0.195   0.194   0.189   0.189   0.191   0.189   0.189   0.189   0.189   0.190   0.190   0.189   0.189   0.190   0.195   0.186   0.189   0.199   0.195
    28.90    0.185   0.182   0.186   0.186   0.184   0.193   0.186   0.187   0.189   0.193   0.192   0.190   0.195   0.191   0.195   0.190   0.190   0.190   0.194   0.184   0.182   0.182   0.181   0.186   0.178   0.183   0.182   0.187   0.183   0.182   0.189   0.182   0.185   0.186   0.192   0.195   0.180   0.180   0.181   0.181   0.183   0.178   0.181   0.182   0.187   0.188   0.193   0.190   0.186   0.183   0.187   0.187   0.184   0.190   0.186   0.187   0.189   0.185   0.185   0.184   0.184   0.181   0.183   0.190   0.193   0.190   0.185   0.191   0.184   0.182   0.190   0.191   0.198   0.197   0.194   0.196   0.193   0.189   0.187   0.189   0.186   0.190   0.186   0.188   0.188   0.185   0.184   0.183   0.183   0.185   0.196   0.191   0.190   0.190   0.185   0.188   0.189   0.190   0.181   0.185   0.188   0.179   0.185   0.188   0.185   0.187   0.186   0.188   0.192   0.189   0.190   0.192   0.186   0.187   0.186   0.183   0.190   0.187   0.186   0.188   0.184   0.188   0.191   0.194   0.187   0.188   0.188   0.188   0.188   0.181   0.182   0.184   0.187   0.192   0.190   0.190   0.191   0.201   0.197   0.198   0.202   0.198   0.196   0.196   0.196   0.195   0.194   0.191   0.190   0.200   0.196   0.195   0.197   0.196   0.204   0.202   0.196   0.195   0.196   0.191   0.188   0.191   0.198   0.198   0.199   0.200   0.201   0.202   0.203   0.198   0.197   0.196   0.199   0.196   0.197   0.184   0.185   0.186   0.189   0.188   0.186   0.183   0.194   0.190   0.190   0.189   0.185   0.189   0.192   0.189   0.189   0.194   0.183
    19.60    0.185   0.189   0.184   0.183   0.188   0.190   0.194   0.186   0.190   0.189   0.191   0.183   0.189   0.187   0.194   0.188   0.193   0.201   0.188   0.185   0.181   0.180   0.175   0.184   0.185   0.180   0.181   0.182   0.188   0.183   0.188   0.190   0.189   0.192   0.192   0.194   0.189   0.186   0.184   0.184   0.182   0.178   0.179   0.186   0.194   0.186   0.195   0.185   0.184   0.184   0.181   0.183   0.177   0.179   0.185   0.187   0.186   0.187   0.183   0.178   0.183   0.183   0.181   0.191   0.192   0.192   0.194   0.191   0.188   0.180   0.184   0.188   0.190   0.195   0.191   0.195   0.196   0.192   0.188   0.190   0.186   0.183   0.184   0.184   0.190   0.185   0.188   0.187   0.187   0.192   0.194   0.194   0.193   0.192   0.187   0.185   0.187   0.184   0.185   0.188   0.183   0.184   0.188   0.191   0.190   0.190   0.184   0.188   0.191   0.190   0.186   0.190   0.185   0.183   0.187   0.192   0.190   0.190   0.189   0.188   0.197   0.188   0.191   0.195   0.188   0.183   0.191   0.189   0.191   0.188   0.184   0.186   0.188   0.193   0.191   0.187   0.190   0.193   0.197   0.198   0.200   0.199   0.190   0.192   0.191   0.191   0.190   0.189   0.196   0.195   0.196   0.194   0.201   0.200   0.206   0.203   0.196   0.192   0.193   0.188   0.185   0.187   0.193   0.193   0.190   0.199   0.204   0.202   0.194   0.199   0.191   0.187   0.191   0.192   0.195   0.194   0.186   0.193   0.193   0.194   0.189   0.184   0.191   0.191   0.195   0.191   0.188   0.189   0.196   0.197   0.190   0.195   0.189
    10.30    0.193   0.189   0.186   0.186   0.190   0.193   0.189   0.188   0.184   0.183   0.189   0.186   0.183   0.187   0.196   0.185   0.190   0.193   0.195   0.177   0.185   0.186   0.184   0.184   0.178   0.183   0.185   0.192   0.190   0.183   0.187   0.187   0.187   0.192   0.191   0.191   0.187   0.190   0.186   0.190   0.190   0.190   0.186   0.189   0.191   0.189   0.191   0.190   0.185   0.189   0.185   0.181   0.181   0.180   0.187   0.186   0.189   0.193   0.189   0.182   0.181   0.186   0.186   0.188   0.189   0.198   0.196   0.191   0.191   0.191   0.181   0.186   0.183   0.195   0.196   0.194   0.185   0.186   0.189   0.188   0.183   0.179   0.186   0.184   0.188   0.191   0.187   0.192   0.194   0.198   0.199   0.197   0.194   0.191   0.183   0.180   0.183   0.182   0.183   0.188   0.182   0.186   0.195   0.197   0.190   0.191   0.193   0.187   0.187   0.182   0.181   0.184   0.183   0.182   0.186   0.189   0.188   0.191   0.189   0.191   0.190   0.193   0.195   0.198   0.183   0.185   0.188   0.189   0.189   0.191   0.190   0.188   0.189   0.192   0.187   0.189   0.192   0.192   0.196   0.195   0.195   0.199   0.194   0.188   0.188   0.190   0.190   0.195   0.197   0.194   0.194   0.198   0.198   0.200   0.197   0.202   0.200   0.199   0.191   0.189   0.185   0.185   0.192   0.195   0.190   0.188   0.190   0.195   0.193   0.194   0.195   0.193   0.193   0.199   0.202   0.198   0.193   0.198   0.197   0.197   0.192   0.191   0.191   0.191   0.197   0.186   0.185   0.189   0.195   0.197   0.196   0.194   0.193
     1.00    0.190   0.194   0.191   0.188   0.185   0.190   0.187   0.188   0.189   0.184   0.188   0.196   0.191   0.191   0.194   0.190   0.188   0.188   0.186   0.187   0.189   0.187   0.182   0.184   0.183   0.185   0.187   0.191   0.185   0.187   0.185   0.188   0.188   0.189   0.189   0.192   0.192   0.190   0.189   0.195   0.189   0.186   0.187   0.187   0.191   0.193   0.191   0.190   0.193   0.190   0.183   0.180   0.178   0.182   0.181   0.186   0.192   0.190   0.188   0.182   0.186   0.191   0.195   0.190   0.194   0.191   0.196   0.200   0.195   0.190   0.189   0.186   0.193   0.193   0.188   0.193   0.187   0.189   0.188   0.187   0.189   0.194   0.182   0.184   0.185   0.194   0.191   0.184   0.189   0.186   0.198   0.193   0.187   0.193   0.185   0.189   0.192   0.181   0.186   0.188   0.182   0.185   0.189   0.192   0.190   0.191   0.194   0.194   0.183   0.188   0.186   0.185   0.185   0.187   0.185   0.186   0.189   0.191   0.185   0.192   0.190   0.188   0.188   0.189   0.181   0.182   0.190   0.191   0.190   0.191   0.191   0.193   0.194   0.190   0.195   0.190   0.193   0.191   0.196   0.195   0.193   0.199   0.195   0.188   0.191   0.191   0.191   0.196   0.196   0.196   0.192   0.202   0.198   0.197   0.199   0.191   0.192   0.194   0.195   0.191   0.188   0.190   0.191   0.187   0.194   0.189   0.187   0.188   0.192   0.198   0.196   0.198   0.198   0.195   0.198   0.199   0.196   0.198   0.196   0.188   0.194   0.193   0.191   0.191   0.191   0.186   0.181   0.190   0.192   0.191   0.196   0.193   0.195

   Mean standard deviation across all grid points:
      u component:    0.374 m/s
      v component:    0.313 m/s
      w component:    0.189 m/s


U-component (X) statistics from the interpolated hub point:

   Mean =   9.7063 m/s
   TI   =   3.8685 %


Processing complete.  2.12750E+05 CPU seconds used.
