
This summary file was generated by TurbSim (from OpenFAST-v3.5.3) on 19-Apr-2025 at 20:51:34.


Runtime Options:

**********  Random seed #1
    RANLUX  Type of random number generator
         F  Output binary HH turbulence parameters?
         F  Output formatted turbulence parameters?
         F  Output AeroDyn HH files?
         T  Output AeroDyn FF files?
         F  Output BLADED FF files?
         F  Output tower data?
         F  Output HAWC FF files?
         F  Output formatted FF files?
         T  Output coherent turbulence time step file?
 0 -  NONE  IEC turbulence models scaled to exact specified standard deviation


Turbine/Model Specifications:

        39  Vertical grid-point matrix dimension
       193  Horizontal grid-point matrix dimension
     0.250  Time step [seconds]
   900.000  Analysis time [seconds]
   900.000  Usable output time [seconds]
   177.700  Hub height [m]
   353.400  Grid height [m]
  1785.600  Grid width [m]
     0.000  Vertical flow angle [degrees]
     0.000  Horizontal flow angle [degrees]


Meteorological Boundary Conditions:

    IECKAI  IEC Kaimal spectral model
         1  IEC standard: IEC 61400-1 Ed. 3: 2005
     6.000  Percent turbulence intensity, IEC 61400-1 Ed. 3: 2005
       NTM  IEC Normal Turbulence Model
       N/A  IEC Extreme Turbulence Model (ETM) "c" parameter [m/s]
       USR  Wind profile type
    90.000  Reference height [m]
       N/A  Reference wind speed [m/s]
       N/A  Jet height [m]
       N/A  Power law exponent
     0.030  Surface roughness length [m]


Non-IEC Meteorological Boundary Conditions:

       N/A  Site latitude [degrees]
       N/A  Gradient Richardson number
       N/A  Friction or shear velocity [m/s]
       N/A  Mixing layer depth [m]
       N/A  Mean hub u'w' Reynolds stress
       N/A  Mean hub u'v' Reynolds stress
       N/A  Mean hub v'w' Reynolds stress


Spatial Coherence Models:

       IEC  u-component coherence model
       IEC  v-component coherence model
       IEC  w-component coherence model
(   12.000, 0.353E-03)  u-component coherence parameters
(   12.000, 0.353E-03)  v-component coherence parameters
(   12.000, 0.353E-03)  w-component coherence parameters
       N/A  Coherence exponent


User-Defined Profiles:

  Height   Wind Speed   Horizontal Angle
   (m)        (m/s)          (deg)      
  ------   ----------   ----------------
  353.40      10.00         318.19
  334.80      10.00         321.14
  316.20      10.00         324.10
  297.60      10.00         327.05
  279.00      10.00         330.00
  260.40      10.00         332.95
  241.80      10.00         335.90
  223.20      10.00         338.86
  204.60      10.00         341.81
  186.00      10.00         344.76
  167.40      10.00         347.71
  148.80      10.00         350.67
  130.20      10.00         353.62
  111.60      10.00         356.57
   93.00      10.00         359.52
   74.40      10.00           2.48
   55.80      10.00           5.43
   37.20      10.00           8.38
   18.60      10.00          11.33
    0.00      10.00          14.29


You have requested that the following file(s) be generated:

   /kfs3/scratch/agupta/Projects/RL_Incubator/FinalRuns_Veer/Seed4/./FFSim_Seed4/Cond00_v10.0_PL0.12_TI6.0/Seed_2/Low.bts (AeroDyn/TurbSim full-field wind file)


Turbulence Simulation Scaling Parameter Summary:

   Turbulence model used                            =  IEC Kaimal
   Turbulence characteristic                        =  User-specified
   IEC standard                                     =  IEC 61400-1 Ed. 3: 2005
   Mean wind speed at hub height                    =   10.000 m/s
   Characteristic value of standard deviation       =    0.600 m/s
   Turbulence scale                                 =   42.000 m
   u-component integral scale                       =  340.200 m
   Coherency scale                                  =  340.200 m
   Characteristic value of hub turbulence intensity =    6.000%
   Gradient Richardson number                       =    0.000

   Wind profile type                                =  Linear interpolation of user-defined profile
   Equivalent power law exponent (upper rotor disk) =    0.000
   Mean shear across rotor disk                     =    0.000 (m/s)/m
   Assumed rotor diameter                           =  353.400 m
   Surface roughness length                         =    0.030 m

   Nyquist frequency of turbulent wind field        =    2.000 Hz

   Number of time steps in the FFT                  =     3600
   Number of time steps output                      =     3600
   Number of points simulated                       =     7527


Mean Flow Angles:

   Vertical   =   0.0 degrees
   Horizontal =   0.0 degrees

Mean Wind Speed Profile:

   Height    Wind Speed   Horizontal Angle  Vertical Angle  U-comp (X)   V-comp (Y)   W-comp (Z)
     (m)        (m/s)         (degrees)       (degrees)       (m/s)        (m/s)        (m/s)   
   ------    ----------   ----------------  --------------  ----------   ----------   ----------
    354.4       10.00          318.19            0.00          7.45        -6.67         0.00
    345.1       10.00          319.51            0.00          7.60        -6.49         0.00
    335.8       10.00          320.98            0.00          7.77        -6.30         0.00
    326.5       10.00          322.46            0.00          7.93        -6.09         0.00
    317.2       10.00          323.94            0.00          8.08        -5.89         0.00
    307.9       10.00          325.41            0.00          8.23        -5.68         0.00
    298.6       10.00          326.89            0.00          8.38        -5.46         0.00
    289.3       10.00          328.37            0.00          8.51        -5.25         0.00
    280.0       10.00          329.84            0.00          8.65        -5.02         0.00
    270.7       10.00          331.32            0.00          8.77        -4.80         0.00
    261.4       10.00          332.79            0.00          8.89        -4.57         0.00
    252.1       10.00          334.27            0.00          9.01        -4.34         0.00
    242.8       10.00          335.75            0.00          9.12        -4.11         0.00
    233.5       10.00          337.22            0.00          9.22        -3.87         0.00
    224.2       10.00          338.70            0.00          9.32        -3.63         0.00
    214.9       10.00          340.17            0.00          9.41        -3.39         0.00
    205.6       10.00          341.65            0.00          9.49        -3.15         0.00
    196.3       10.00          343.13            0.00          9.57        -2.90         0.00
    187.0       10.00          344.60            0.00          9.64        -2.66         0.00
    177.7       10.00          346.08            0.00          9.71        -2.41         0.00
    168.4       10.00          347.56            0.00          9.77        -2.15         0.00
    159.1       10.00          349.03            0.00          9.82        -1.90         0.00
    149.8       10.00          350.51            0.00          9.86        -1.65         0.00
    140.5       10.00          351.98            0.00          9.90        -1.39         0.00
    131.2       10.00          353.46            0.00          9.93        -1.14         0.00
    121.9       10.00          354.94            0.00          9.96        -0.88         0.00
    112.6       10.00          356.41            0.00          9.98        -0.63         0.00
    103.3       10.00          357.89            0.00          9.99        -0.37         0.00
     94.0       10.00          359.37            0.00         10.00        -0.11         0.00
     84.7       10.00          360.84            0.00         10.00         0.15         0.00
     75.4       10.00          362.32            0.00          9.99         0.40         0.00
     66.1       10.00            3.79            0.00          9.98         0.66         0.00
     56.8       10.00            5.27            0.00          9.96         0.92         0.00
     47.5       10.00            6.75            0.00          9.93         1.17         0.00
     38.2       10.00            8.22            0.00          9.90         1.43         0.00
     28.9       10.00            9.70            0.00          9.86         1.68         0.00
     19.6       10.00           11.17            0.00          9.81         1.94         0.00
     10.3       10.00           12.65            0.00          9.76         2.19         0.00
      1.0       10.00           14.13            0.00          9.70         2.44         0.00


Harvested Random Seeds after Generation of the Random Numbers:

    377667225 K 1
            0 K 2


Hub-Height Simulated Turbulence Statistical Summary:

   Type of Wind        Min (m/s)   Mean (m/s)    Max (m/s)  Sigma (m/s)       TI (%)
   ----------------    ---------   ----------    ---------  -----------       ------
   Longitudinal (u)         8.32        10.00        11.81        0.607        6.070
   Lateral (v)             -1.44         0.00         1.66        0.468        4.676
   Vertical (w)            -1.22         0.00         1.06        0.296        2.956
   U component              8.05         9.71        11.50        0.595        6.125
   V component             -4.02        -2.41        -0.86        0.483        4.979
   W component             -1.22         0.00         1.06        0.296        3.046
   Horizontal (U&V)         8.32        10.01        11.81        0.608        6.075
   Total                    8.32        10.02        11.81        0.607        6.065

                       Min Reynolds     Mean Reynolds    Max Reynolds    Correlation
   Product             Stress (m/s)^2   Stress (m/s)^2   Stress (m/s)^2  Coefficient
   ----------------    --------------   --------------   --------------  -----------
   u'w'                     -1.195            -0.000             1.212        -0.001
   u'v'                     -1.978            -0.013             1.221        -0.047
   v'w'                     -1.122            -0.008             0.792        -0.058


   Friction Velocity (Ustar)  =      0.013 m/s
   Maximum Instantaneous TKE  =      2.164 (m/s)^2
   Maximum Instantaneous CTKE =      1.131 (m/s)^2


Grid Point Variance Summary:

   Y-coord -892.80 -883.50 -874.20 -864.90 -855.60 -846.30 -837.00 -827.70 -818.40 -809.10 -799.80 -790.50 -781.20 -771.90 -762.60 -753.30 -744.00 -734.70 -725.40 -716.10 -706.80 -697.50 -688.20 -678.90 -669.60 -660.30 -651.00 -641.70 -632.40 -623.10 -613.80 -604.50 -595.20 -585.90 -576.60 -567.30 -558.00 -548.70 -539.40 -530.10 -520.80 -511.50 -502.20 -492.90 -483.60 -474.30 -465.00 -455.70 -446.40 -437.10 -427.80 -418.50 -409.20 -399.90 -390.60 -381.30 -372.00 -362.70 -353.40 -344.10 -334.80 -325.50 -316.20 -306.90 -297.60 -288.30 -279.00 -269.70 -260.40 -251.10 -241.80 -232.50 -223.20 -213.90 -204.60 -195.30 -186.00 -176.70 -167.40 -158.10 -148.80 -139.50 -130.20 -120.90 -111.60 -102.30  -93.00  -83.70  -74.40  -65.10  -55.80  -46.50  -37.20  -27.90  -18.60   -9.30    0.00    9.30   18.60   27.90   37.20   46.50   55.80   65.10   74.40   83.70   93.00  102.30  111.60  120.90  130.20  139.50  148.80  158.10  167.40  176.70  186.00  195.30  204.60  213.90  223.20  232.50  241.80  251.10  260.40  269.70  279.00  288.30  297.60  306.90  316.20  325.50  334.80  344.10  353.40  362.70  372.00  381.30  390.60  399.90  409.20  418.50  427.80  437.10  446.40  455.70  465.00  474.30  483.60  492.90  502.20  511.50  520.80  530.10  539.40  548.70  558.00  567.30  576.60  585.90  595.20  604.50  613.80  623.10  632.40  641.70  651.00  660.30  669.60  678.90  688.20  697.50  706.80  716.10  725.40  734.70  744.00  753.30  762.60  771.90  781.20  790.50  799.80  809.10  818.40  827.70  837.00  846.30  855.60  864.90  874.20  883.50  892.80

   Height   Standard deviation at grid points for the u component:
   354.40    0.610   0.580   0.591   0.625   0.664   0.651   0.661   0.630   0.633   0.679   0.646   0.680   0.660   0.656   0.616   0.601   0.643   0.632   0.636   0.611   0.615   0.609   0.587   0.574   0.568   0.572   0.570   0.556   0.575   0.571   0.534   0.552   0.596   0.586   0.592   0.588   0.622   0.591   0.623   0.646   0.612   0.588   0.625   0.626   0.621   0.635   0.569   0.598   0.675   0.614   0.610   0.643   0.639   0.668   0.628   0.643   0.633   0.625   0.628   0.612   0.615   0.639   0.663   0.663   0.699   0.682   0.730   0.715   0.721   0.719   0.735   0.754   0.710   0.719   0.711   0.698   0.686   0.692   0.694   0.698   0.684   0.651   0.585   0.541   0.590   0.625   0.648   0.637   0.673   0.665   0.640   0.662   0.657   0.718   0.789   0.737   0.739   0.735   0.709   0.687   0.691   0.666   0.651   0.678   0.649   0.632   0.634   0.646   0.619   0.649   0.627   0.577   0.514   0.511   0.537   0.533   0.562   0.522   0.543   0.559   0.539   0.506   0.516   0.530   0.547   0.541   0.535   0.543   0.552   0.572   0.534   0.495   0.511   0.495   0.535   0.542   0.529   0.532   0.485   0.513   0.544   0.548   0.543   0.544   0.550   0.568   0.573   0.583   0.543   0.492   0.508   0.520   0.462   0.500   0.542   0.564   0.536   0.531   0.530   0.580   0.645   0.630   0.651   0.633   0.619   0.583   0.565   0.491   0.490   0.509   0.552   0.545   0.543   0.570   0.552   0.563   0.548   0.508   0.498   0.541   0.543   0.593   0.621   0.662   0.590   0.571   0.537   0.519   0.527   0.489   0.487   0.515   0.501
   345.10    0.597   0.593   0.616   0.630   0.646   0.672   0.678   0.665   0.656   0.668   0.681   0.677   0.690   0.624   0.608   0.639   0.662   0.668   0.676   0.670   0.667   0.658   0.612   0.606   0.596   0.574   0.575   0.552   0.544   0.533   0.508   0.545   0.583   0.551   0.580   0.579   0.624   0.600   0.623   0.612   0.606   0.574   0.629   0.609   0.592   0.590   0.594   0.627   0.665   0.633   0.635   0.647   0.699   0.652   0.679   0.625   0.596   0.601   0.630   0.625   0.635   0.596   0.626   0.732   0.706   0.673   0.717   0.676   0.724   0.763   0.747   0.720   0.731   0.695   0.661   0.616   0.612   0.654   0.652   0.639   0.610   0.627   0.593   0.588   0.583   0.586   0.620   0.652   0.694   0.637   0.611   0.656   0.660   0.719   0.767   0.769   0.712   0.701   0.706   0.707   0.681   0.658   0.685   0.651   0.691   0.667   0.658   0.661   0.641   0.655   0.625   0.635   0.539   0.542   0.544   0.528   0.522   0.515   0.503   0.524   0.512   0.511   0.500   0.543   0.551   0.573   0.560   0.568   0.559   0.552   0.548   0.540   0.558   0.576   0.598   0.533   0.560   0.544   0.488   0.513   0.525   0.550   0.521   0.514   0.562   0.564   0.575   0.545   0.513   0.502   0.516   0.525   0.487   0.485   0.543   0.543   0.553   0.549   0.567   0.570   0.626   0.661   0.641   0.625   0.595   0.579   0.524   0.507   0.491   0.495   0.504   0.522   0.548   0.560   0.560   0.565   0.564   0.565   0.558   0.572   0.593   0.585   0.586   0.564   0.584   0.559   0.534   0.535   0.555   0.515   0.525   0.531   0.527
   335.80    0.596   0.629   0.635   0.641   0.645   0.679   0.693   0.699   0.684   0.655   0.672   0.671   0.650   0.689   0.652   0.663   0.695   0.716   0.729   0.691   0.672   0.714   0.662   0.620   0.594   0.607   0.577   0.529   0.576   0.563   0.565   0.570   0.574   0.551   0.571   0.571   0.589   0.596   0.593   0.662   0.588   0.588   0.597   0.620   0.605   0.596   0.620   0.632   0.639   0.627   0.649   0.674   0.642   0.693   0.700   0.627   0.611   0.624   0.646   0.664   0.625   0.620   0.652   0.716   0.737   0.704   0.702   0.675   0.714   0.688   0.708   0.723   0.706   0.671   0.638   0.605   0.587   0.573   0.629   0.640   0.639   0.641   0.610   0.598   0.603   0.630   0.652   0.655   0.632   0.687   0.635   0.644   0.664   0.695   0.717   0.708   0.731   0.699   0.677   0.717   0.755   0.687   0.643   0.696   0.703   0.637   0.676   0.637   0.619   0.627   0.610   0.591   0.573   0.551   0.508   0.498   0.511   0.533   0.500   0.504   0.466   0.515   0.528   0.563   0.526   0.582   0.551   0.570   0.566   0.577   0.582   0.584   0.605   0.591   0.598   0.531   0.528   0.558   0.506   0.488   0.502   0.534   0.495   0.506   0.512   0.517   0.497   0.509   0.529   0.519   0.528   0.543   0.500   0.520   0.536   0.564   0.551   0.566   0.585   0.611   0.633   0.648   0.668   0.637   0.627   0.578   0.548   0.535   0.523   0.531   0.510   0.531   0.517   0.552   0.557   0.553   0.549   0.550   0.553   0.517   0.556   0.591   0.537   0.561   0.539   0.529   0.538   0.541   0.532   0.519   0.572   0.536   0.521
   326.50    0.571   0.616   0.617   0.661   0.675   0.662   0.724   0.704   0.706   0.671   0.684   0.639   0.648   0.660   0.678   0.677   0.684   0.697   0.713   0.706   0.673   0.669   0.681   0.604   0.641   0.601   0.613   0.595   0.573   0.559   0.575   0.577   0.602   0.544   0.573   0.550   0.555   0.575   0.590   0.620   0.607   0.599   0.609   0.641   0.600   0.583   0.610   0.635   0.645   0.627   0.648   0.680   0.645   0.679   0.661   0.612   0.610   0.613   0.609   0.611   0.621   0.577   0.623   0.653   0.735   0.748   0.738   0.701   0.697   0.720   0.728   0.674   0.668   0.671   0.645   0.604   0.584   0.567   0.635   0.594   0.626   0.619   0.596   0.589   0.609   0.611   0.608   0.605   0.661   0.647   0.659   0.683   0.680   0.673   0.721   0.742   0.752   0.766   0.731   0.739   0.728   0.677   0.689   0.745   0.719   0.650   0.662   0.632   0.603   0.588   0.529   0.573   0.577   0.529   0.481   0.490   0.495   0.527   0.508   0.487   0.486   0.499   0.505   0.497   0.475   0.556   0.572   0.542   0.587   0.605   0.616   0.570   0.605   0.605   0.584   0.527   0.536   0.517   0.483   0.507   0.504   0.517   0.529   0.515   0.511   0.484   0.477   0.499   0.558   0.529   0.516   0.512   0.506   0.516   0.565   0.578   0.615   0.612   0.621   0.630   0.631   0.653   0.676   0.643   0.597   0.574   0.533   0.537   0.543   0.525   0.530   0.538   0.545   0.516   0.523   0.516   0.500   0.537   0.528   0.564   0.567   0.545   0.518   0.536   0.510   0.540   0.547   0.529   0.532   0.539   0.545   0.541   0.523
   317.20    0.573   0.601   0.638   0.675   0.691   0.679   0.712   0.713   0.672   0.644   0.638   0.642   0.643   0.698   0.675   0.671   0.647   0.643   0.637   0.631   0.694   0.662   0.630   0.615   0.596   0.641   0.641   0.601   0.587   0.608   0.583   0.533   0.555   0.560   0.537   0.541   0.562   0.587   0.599   0.581   0.603   0.646   0.626   0.610   0.591   0.576   0.608   0.617   0.634   0.640   0.639   0.646   0.667   0.652   0.643   0.636   0.592   0.613   0.626   0.561   0.591   0.580   0.582   0.644   0.689   0.731   0.704   0.686   0.719   0.728   0.731   0.704   0.646   0.636   0.612   0.581   0.577   0.622   0.624   0.603   0.598   0.591   0.573   0.574   0.569   0.566   0.524   0.579   0.621   0.619   0.596   0.614   0.651   0.700   0.697   0.739   0.735   0.771   0.760   0.750   0.708   0.684   0.726   0.734   0.722   0.637   0.622   0.586   0.604   0.596   0.574   0.562   0.551   0.535   0.514   0.504   0.476   0.499   0.485   0.473   0.496   0.481   0.502   0.474   0.507   0.523   0.551   0.561   0.579   0.581   0.573   0.590   0.551   0.560   0.579   0.573   0.535   0.487   0.496   0.490   0.531   0.543   0.510   0.503   0.495   0.525   0.503   0.523   0.563   0.586   0.537   0.538   0.496   0.531   0.553   0.566   0.575   0.600   0.647   0.649   0.630   0.637   0.651   0.635   0.595   0.572   0.521   0.499   0.526   0.543   0.565   0.568   0.568   0.523   0.489   0.486   0.500   0.521   0.491   0.549   0.560   0.552   0.511   0.497   0.503   0.511   0.539   0.583   0.539   0.548   0.532   0.566   0.585
   307.90    0.618   0.599   0.641   0.660   0.677   0.660   0.661   0.671   0.682   0.662   0.685   0.706   0.674   0.718   0.673   0.658   0.648   0.636   0.612   0.624   0.663   0.627   0.591   0.589   0.641   0.644   0.626   0.603   0.597   0.597   0.573   0.586   0.570   0.564   0.547   0.580   0.571   0.589   0.594   0.599   0.617   0.649   0.614   0.614   0.609   0.598   0.622   0.587   0.617   0.584   0.599   0.621   0.658   0.655   0.619   0.604   0.544   0.593   0.616   0.562   0.566   0.564   0.588   0.637   0.695   0.679   0.651   0.687   0.694   0.676   0.714   0.722   0.677   0.653   0.622   0.557   0.547   0.602   0.646   0.643   0.609   0.587   0.571   0.581   0.522   0.540   0.510   0.539   0.555   0.609   0.595   0.596   0.616   0.667   0.679   0.706   0.705   0.779   0.796   0.751   0.735   0.720   0.722   0.708   0.734   0.673   0.630   0.615   0.623   0.590   0.576   0.528   0.538   0.528   0.539   0.523   0.498   0.510   0.495   0.509   0.495   0.492   0.482   0.466   0.504   0.516   0.527   0.564   0.589   0.583   0.569   0.582   0.527   0.540   0.555   0.558   0.544   0.547   0.513   0.517   0.480   0.496   0.527   0.524   0.515   0.491   0.482   0.508   0.540   0.542   0.509   0.514   0.513   0.542   0.566   0.554   0.565   0.586   0.594   0.609   0.623   0.654   0.684   0.660   0.617   0.544   0.524   0.524   0.534   0.550   0.569   0.546   0.532   0.515   0.481   0.514   0.499   0.511   0.492   0.518   0.529   0.541   0.558   0.534   0.506   0.510   0.502   0.499   0.520   0.521   0.511   0.564   0.571
   298.60    0.590   0.621   0.575   0.618   0.634   0.593   0.649   0.665   0.709   0.702   0.653   0.694   0.693   0.690   0.698   0.666   0.679   0.684   0.652   0.653   0.662   0.625   0.601   0.588   0.642   0.633   0.597   0.611   0.583   0.541   0.544   0.591   0.589   0.564   0.547   0.584   0.584   0.568   0.574   0.602   0.602   0.580   0.593   0.599   0.535   0.540   0.553   0.553   0.576   0.549   0.561   0.588   0.615   0.596   0.629   0.610   0.583   0.585   0.589   0.608   0.556   0.550   0.518   0.590   0.613   0.654   0.633   0.683   0.672   0.690   0.694   0.669   0.662   0.641   0.570   0.570   0.560   0.580   0.631   0.652   0.656   0.625   0.593   0.550   0.511   0.488   0.496   0.493   0.527   0.561   0.638   0.605   0.617   0.684   0.682   0.696   0.726   0.755   0.795   0.747   0.734   0.700   0.710   0.695   0.660   0.673   0.653   0.573   0.573   0.581   0.597   0.594   0.548   0.582   0.555   0.544   0.546   0.510   0.512   0.508   0.497   0.503   0.495   0.518   0.511   0.519   0.538   0.548   0.589   0.621   0.585   0.576   0.527   0.519   0.538   0.625   0.612   0.548   0.554   0.500   0.506   0.517   0.509   0.533   0.513   0.516   0.494   0.537   0.544   0.549   0.528   0.501   0.516   0.547   0.541   0.562   0.551   0.557   0.582   0.613   0.597   0.612   0.657   0.635   0.585   0.569   0.564   0.512   0.530   0.512   0.541   0.573   0.549   0.517   0.514   0.541   0.507   0.501   0.508   0.505   0.526   0.566   0.570   0.557   0.501   0.491   0.506   0.480   0.475   0.503   0.510   0.572   0.579
   289.30    0.574   0.573   0.603   0.589   0.601   0.582   0.626   0.641   0.678   0.649   0.657   0.624   0.651   0.676   0.655   0.681   0.692   0.685   0.690   0.653   0.597   0.646   0.632   0.623   0.643   0.652   0.622   0.586   0.547   0.545   0.509   0.576   0.585   0.586   0.551   0.556   0.566   0.555   0.559   0.565   0.593   0.609   0.593   0.541   0.524   0.553   0.561   0.522   0.526   0.537   0.531   0.595   0.575   0.547   0.581   0.613   0.601   0.597   0.566   0.619   0.589   0.570   0.564   0.603   0.639   0.606   0.654   0.630   0.634   0.640   0.665   0.684   0.678   0.643   0.618   0.556   0.569   0.596   0.615   0.632   0.643   0.612   0.588   0.550   0.495   0.478   0.505   0.480   0.555   0.587   0.615   0.626   0.660   0.670   0.656   0.703   0.724   0.720   0.749   0.714   0.707   0.677   0.623   0.621   0.619   0.640   0.613   0.579   0.572   0.579   0.575   0.575   0.581   0.561   0.494   0.502   0.541   0.528   0.499   0.495   0.492   0.541   0.540   0.504   0.521   0.544   0.567   0.557   0.560   0.568   0.570   0.581   0.591   0.600   0.603   0.616   0.573   0.553   0.539   0.534   0.550   0.582   0.531   0.514   0.525   0.518   0.500   0.527   0.535   0.531   0.511   0.503   0.502   0.526   0.550   0.541   0.588   0.571   0.588   0.615   0.634   0.634   0.621   0.577   0.554   0.533   0.549   0.549   0.556   0.528   0.572   0.582   0.582   0.569   0.596   0.545   0.485   0.518   0.509   0.512   0.534   0.576   0.548   0.537   0.510   0.483   0.502   0.466   0.489   0.509   0.511   0.528   0.563
   280.00    0.584   0.611   0.605   0.585   0.541   0.569   0.613   0.611   0.641   0.646   0.668   0.662   0.661   0.658   0.622   0.650   0.634   0.633   0.656   0.636   0.661   0.673   0.656   0.646   0.654   0.629   0.617   0.582   0.543   0.516   0.511   0.530   0.574   0.506   0.528   0.560   0.527   0.557   0.514   0.544   0.560   0.575   0.564   0.557   0.570   0.516   0.530   0.516   0.508   0.523   0.578   0.586   0.593   0.566   0.577   0.578   0.608   0.569   0.582   0.585   0.591   0.603   0.595   0.599   0.590   0.575   0.593   0.587   0.592   0.633   0.651   0.655   0.617   0.597   0.598   0.547   0.551   0.596   0.625   0.590   0.571   0.540   0.534   0.492   0.491   0.485   0.501   0.498   0.554   0.581   0.602   0.577   0.617   0.674   0.711   0.736   0.741   0.714   0.724   0.681   0.679   0.692   0.645   0.592   0.633   0.618   0.579   0.584   0.598   0.597   0.593   0.568   0.575   0.521   0.506   0.470   0.518   0.523   0.500   0.510   0.525   0.511   0.512   0.505   0.548   0.571   0.550   0.551   0.574   0.563   0.590   0.621   0.621   0.581   0.607   0.636   0.578   0.562   0.521   0.555   0.571   0.591   0.568   0.502   0.504   0.501   0.499   0.522   0.541   0.527   0.524   0.521   0.533   0.520   0.503   0.536   0.539   0.604   0.583   0.629   0.634   0.628   0.601   0.551   0.565   0.560   0.546   0.560   0.539   0.565   0.565   0.568   0.611   0.582   0.563   0.559   0.509   0.529   0.537   0.520   0.553   0.526   0.537   0.557   0.582   0.523   0.487   0.510   0.521   0.508   0.503   0.544   0.543
   270.70    0.533   0.569   0.606   0.586   0.590   0.624   0.598   0.618   0.662   0.653   0.677   0.630   0.689   0.625   0.598   0.629   0.659   0.638   0.636   0.661   0.616   0.626   0.635   0.676   0.653   0.672   0.639   0.620   0.534   0.546   0.525   0.541   0.511   0.498   0.515   0.538   0.551   0.567   0.526   0.539   0.525   0.567   0.549   0.548   0.578   0.524   0.520   0.510   0.517   0.550   0.603   0.577   0.572   0.527   0.566   0.599   0.600   0.571   0.555   0.560   0.540   0.557   0.564   0.585   0.580   0.534   0.525   0.576   0.587   0.607   0.608   0.590   0.606   0.606   0.620   0.599   0.585   0.619   0.593   0.600   0.612   0.566   0.541   0.513   0.492   0.497   0.501   0.525   0.567   0.589   0.592   0.617   0.620   0.673   0.726   0.727   0.712   0.672   0.706   0.715   0.667   0.652   0.640   0.583   0.588   0.600   0.622   0.605   0.603   0.552   0.539   0.591   0.563   0.541   0.527   0.487   0.509   0.508   0.515   0.500   0.504   0.498   0.507   0.529   0.553   0.591   0.561   0.577   0.552   0.536   0.585   0.613   0.594   0.611   0.625   0.609   0.635   0.601   0.562   0.579   0.575   0.563   0.498   0.497   0.506   0.518   0.537   0.557   0.497   0.535   0.503   0.476   0.489   0.497   0.515   0.502   0.545   0.605   0.605   0.625   0.625   0.577   0.568   0.568   0.560   0.552   0.577   0.579   0.570   0.560   0.558   0.549   0.593   0.582   0.593   0.560   0.544   0.543   0.551   0.547   0.589   0.596   0.559   0.558   0.581   0.550   0.535   0.555   0.580   0.538   0.532   0.526   0.533
   261.40    0.598   0.573   0.585   0.581   0.579   0.615   0.610   0.592   0.606   0.635   0.630   0.643   0.660   0.611   0.631   0.617   0.616   0.645   0.660   0.626   0.585   0.600   0.608   0.639   0.654   0.635   0.597   0.588   0.575   0.552   0.550   0.519   0.479   0.500   0.489   0.545   0.547   0.532   0.521   0.519   0.553   0.513   0.533   0.578   0.589   0.525   0.555   0.510   0.513   0.526   0.572   0.555   0.528   0.532   0.521   0.586   0.620   0.602   0.573   0.535   0.495   0.544   0.555   0.562   0.551   0.513   0.561   0.579   0.558   0.572   0.562   0.551   0.542   0.562   0.613   0.652   0.607   0.599   0.614   0.583   0.635   0.534   0.502   0.500   0.502   0.525   0.516   0.562   0.597   0.640   0.591   0.623   0.620   0.660   0.729   0.762   0.713   0.716   0.718   0.688   0.678   0.638   0.637   0.575   0.573   0.578   0.618   0.563   0.575   0.566   0.597   0.590   0.616   0.576   0.558   0.507   0.514   0.482   0.468   0.476   0.481   0.488   0.521   0.526   0.516   0.551   0.526   0.543   0.593   0.577   0.578   0.575   0.541   0.561   0.609   0.622   0.609   0.632   0.583   0.565   0.592   0.582   0.532   0.497   0.497   0.497   0.503   0.527   0.500   0.497   0.478   0.464   0.489   0.501   0.501   0.501   0.565   0.599   0.590   0.565   0.612   0.578   0.562   0.569   0.542   0.511   0.561   0.596   0.586   0.578   0.573   0.583   0.528   0.538   0.554   0.568   0.545   0.541   0.541   0.566   0.595   0.628   0.557   0.578   0.599   0.548   0.560   0.550   0.578   0.573   0.525   0.519   0.530
   252.10    0.567   0.550   0.568   0.563   0.583   0.581   0.588   0.565   0.605   0.601   0.589   0.582   0.568   0.587   0.612   0.622   0.611   0.596   0.619   0.633   0.632   0.582   0.615   0.629   0.612   0.596   0.577   0.563   0.562   0.527   0.534   0.509   0.485   0.527   0.501   0.528   0.519   0.503   0.499   0.541   0.524   0.524   0.542   0.575   0.544   0.535   0.522   0.476   0.468   0.483   0.503   0.558   0.562   0.571   0.570   0.580   0.598   0.629   0.553   0.511   0.542   0.536   0.517   0.562   0.542   0.556   0.564   0.571   0.549   0.553   0.540   0.538   0.533   0.558   0.643   0.626   0.634   0.649   0.623   0.613   0.616   0.566   0.525   0.519   0.505   0.517   0.537   0.559   0.594   0.626   0.597   0.620   0.634   0.645   0.701   0.735   0.739   0.735   0.697   0.696   0.641   0.613   0.625   0.656   0.566   0.584   0.590   0.571   0.563   0.582   0.585   0.560   0.606   0.554   0.581   0.554   0.514   0.484   0.488   0.491   0.490   0.469   0.511   0.492   0.535   0.546   0.562   0.524   0.542   0.541   0.553   0.547   0.574   0.591   0.619   0.613   0.607   0.596   0.555   0.566   0.558   0.547   0.546   0.509   0.521   0.496   0.499   0.497   0.476   0.466   0.474   0.457   0.451   0.501   0.509   0.514   0.535   0.570   0.586   0.585   0.601   0.553   0.588   0.562   0.560   0.550   0.620   0.615   0.592   0.567   0.617   0.601   0.560   0.510   0.489   0.541   0.552   0.557   0.549   0.593   0.604   0.615   0.597   0.604   0.566   0.573   0.559   0.554   0.566   0.518   0.517   0.527   0.510
   242.80    0.568   0.568   0.545   0.551   0.591   0.585   0.565   0.577   0.592   0.610   0.582   0.538   0.561   0.557   0.565   0.593   0.571   0.559   0.561   0.593   0.614   0.598   0.616   0.611   0.612   0.582   0.583   0.571   0.553   0.525   0.557   0.550   0.507   0.518   0.497   0.535   0.561   0.515   0.529   0.545   0.545   0.534   0.580   0.563   0.541   0.529   0.476   0.471   0.468   0.463   0.520   0.570   0.555   0.558   0.574   0.611   0.599   0.645   0.596   0.583   0.538   0.540   0.513   0.533   0.547   0.578   0.546   0.575   0.534   0.550   0.542   0.529   0.529   0.584   0.644   0.644   0.640   0.676   0.638   0.639   0.582   0.543   0.543   0.540   0.514   0.509   0.518   0.544   0.586   0.602   0.574   0.594   0.619   0.633   0.674   0.727   0.711   0.675   0.680   0.627   0.604   0.612   0.623   0.629   0.624   0.552   0.588   0.570   0.580   0.600   0.610   0.563   0.580   0.549   0.600   0.546   0.506   0.501   0.499   0.523   0.538   0.574   0.485   0.510   0.496   0.511   0.550   0.540   0.515   0.518   0.547   0.563   0.586   0.569   0.597   0.633   0.609   0.599   0.573   0.556   0.558   0.550   0.542   0.486   0.500   0.458   0.476   0.469   0.495   0.486   0.460   0.448   0.492   0.503   0.487   0.486   0.497   0.525   0.543   0.591   0.575   0.567   0.590   0.568   0.526   0.557   0.605   0.631   0.624   0.644   0.622   0.616   0.534   0.528   0.533   0.533   0.531   0.523   0.555   0.588   0.617   0.591   0.563   0.573   0.571   0.548   0.545   0.539   0.528   0.499   0.509   0.536   0.514
   233.50    0.590   0.568   0.555   0.586   0.558   0.622   0.571   0.610   0.630   0.609   0.592   0.558   0.564   0.557   0.584   0.565   0.575   0.552   0.542   0.565   0.620   0.636   0.612   0.595   0.585   0.588   0.590   0.580   0.585   0.543   0.567   0.554   0.502   0.478   0.515   0.534   0.591   0.540   0.527   0.517   0.541   0.553   0.586   0.523   0.468   0.480   0.475   0.480   0.497   0.499   0.547   0.559   0.543   0.596   0.591   0.605   0.600   0.612   0.668   0.638   0.587   0.538   0.537   0.498   0.515   0.553   0.560   0.585   0.567   0.546   0.548   0.536   0.578   0.600   0.630   0.640   0.645   0.630   0.644   0.651   0.573   0.581   0.536   0.538   0.540   0.500   0.513   0.539   0.575   0.568   0.620   0.605   0.601   0.610   0.669   0.690   0.710   0.689   0.643   0.614   0.601   0.610   0.654   0.688   0.626   0.574   0.612   0.635   0.626   0.625   0.638   0.624   0.636   0.606   0.596   0.602   0.592   0.531   0.480   0.549   0.564   0.580   0.539   0.541   0.505   0.508   0.521   0.518   0.548   0.543   0.554   0.593   0.584   0.587   0.605   0.617   0.571   0.554   0.549   0.569   0.579   0.586   0.557   0.505   0.481   0.484   0.465   0.498   0.446   0.478   0.495   0.475   0.487   0.501   0.490   0.515   0.532   0.559   0.514   0.530   0.528   0.571   0.578   0.561   0.523   0.580   0.607   0.593   0.598   0.633   0.622   0.584   0.517   0.527   0.516   0.517   0.507   0.532   0.576   0.566   0.583   0.590   0.567   0.540   0.550   0.551   0.537   0.527   0.579   0.553   0.539   0.562   0.581
   224.20    0.620   0.628   0.633   0.594   0.582   0.596   0.579   0.561   0.616   0.602   0.594   0.565   0.516   0.537   0.543   0.535   0.580   0.555   0.548   0.620   0.612   0.656   0.642   0.625   0.609   0.619   0.627   0.605   0.644   0.583   0.551   0.559   0.516   0.516   0.501   0.546   0.585   0.553   0.527   0.516   0.544   0.547   0.570   0.506   0.499   0.492   0.514   0.506   0.465   0.508   0.528   0.544   0.576   0.570   0.617   0.624   0.633   0.646   0.648   0.649   0.614   0.573   0.517   0.510   0.506   0.556   0.530   0.548   0.546   0.585   0.543   0.527   0.535   0.591   0.633   0.633   0.618   0.601   0.581   0.581   0.570   0.534   0.538   0.530   0.527   0.521   0.542   0.530   0.605   0.586   0.591   0.600   0.587   0.637   0.657   0.668   0.690   0.701   0.649   0.632   0.608   0.643   0.678   0.690   0.606   0.628   0.603   0.614   0.641   0.694   0.617   0.629   0.666   0.714   0.655   0.626   0.598   0.534   0.500   0.561   0.541   0.535   0.523   0.531   0.528   0.517   0.541   0.540   0.564   0.586   0.609   0.557   0.558   0.581   0.613   0.601   0.601   0.556   0.536   0.571   0.577   0.573   0.540   0.525   0.480   0.467   0.464   0.500   0.521   0.492   0.480   0.485   0.464   0.467   0.504   0.530   0.580   0.562   0.535   0.538   0.550   0.513   0.512   0.557   0.578   0.598   0.581   0.596   0.592   0.617   0.621   0.574   0.565   0.562   0.548   0.565   0.546   0.550   0.535   0.520   0.541   0.568   0.519   0.549   0.515   0.551   0.546   0.533   0.545   0.565   0.568   0.577   0.579
   214.90    0.672   0.704   0.724   0.652   0.604   0.593   0.579   0.554   0.588   0.584   0.576   0.541   0.533   0.537   0.513   0.531   0.548   0.580   0.603   0.608   0.664   0.639   0.656   0.670   0.635   0.625   0.623   0.581   0.587   0.591   0.548   0.548   0.545   0.503   0.486   0.531   0.542   0.535   0.505   0.487   0.520   0.532   0.536   0.561   0.542   0.532   0.512   0.491   0.465   0.514   0.536   0.528   0.540   0.563   0.598   0.612   0.611   0.642   0.675   0.629   0.635   0.567   0.504   0.506   0.499   0.527   0.536   0.508   0.545   0.574   0.538   0.551   0.533   0.570   0.614   0.572   0.572   0.598   0.541   0.540   0.551   0.545   0.556   0.551   0.527   0.520   0.579   0.603   0.601   0.575   0.575   0.604   0.635   0.672   0.702   0.639   0.652   0.691   0.638   0.604   0.620   0.649   0.662   0.675   0.666   0.592   0.637   0.608   0.628   0.690   0.661   0.647   0.686   0.732   0.674   0.611   0.592   0.586   0.580   0.577   0.563   0.531   0.524   0.488   0.524   0.556   0.546   0.557   0.574   0.578   0.598   0.613   0.592   0.603   0.576   0.579   0.564   0.547   0.562   0.581   0.579   0.576   0.566   0.502   0.477   0.450   0.516   0.524   0.499   0.500   0.511   0.533   0.535   0.559   0.546   0.557   0.589   0.590   0.597   0.547   0.514   0.541   0.534   0.565   0.625   0.595   0.603   0.625   0.613   0.601   0.611   0.586   0.620   0.592   0.581   0.596   0.565   0.547   0.526   0.538   0.528   0.541   0.534   0.522   0.545   0.552   0.566   0.581   0.587   0.571   0.569   0.531   0.540
   205.60    0.741   0.719   0.748   0.718   0.663   0.630   0.610   0.591   0.596   0.618   0.600   0.562   0.572   0.556   0.516   0.508   0.522   0.538   0.566   0.586   0.635   0.629   0.663   0.666   0.644   0.657   0.629   0.581   0.569   0.566   0.557   0.541   0.570   0.520   0.499   0.512   0.525   0.496   0.487   0.500   0.520   0.536   0.527   0.591   0.593   0.574   0.525   0.474   0.497   0.512   0.502   0.511   0.535   0.518   0.585   0.635   0.638   0.666   0.659   0.613   0.593   0.590   0.559   0.536   0.533   0.498   0.500   0.551   0.534   0.537   0.537   0.535   0.576   0.581   0.601   0.591   0.545   0.592   0.557   0.552   0.541   0.552   0.554   0.494   0.496   0.526   0.580   0.591   0.611   0.586   0.590   0.626   0.668   0.669   0.710   0.682   0.694   0.665   0.641   0.613   0.681   0.702   0.697   0.674   0.667   0.646   0.641   0.650   0.666   0.699   0.655   0.683   0.708   0.733   0.654   0.676   0.657   0.633   0.644   0.626   0.566   0.559   0.519   0.501   0.559   0.566   0.527   0.561   0.628   0.579   0.567   0.594   0.616   0.583   0.581   0.548   0.573   0.577   0.580   0.564   0.580   0.544   0.577   0.510   0.507   0.512   0.498   0.535   0.533   0.525   0.541   0.589   0.579   0.565   0.553   0.628   0.675   0.676   0.607   0.543   0.526   0.557   0.541   0.567   0.592   0.587   0.604   0.625   0.607   0.634   0.643   0.595   0.589   0.617   0.626   0.590   0.550   0.558   0.542   0.544   0.520   0.532   0.492   0.514   0.524   0.546   0.565   0.555   0.560   0.550   0.573   0.561   0.553
   196.30    0.726   0.725   0.713   0.685   0.669   0.675   0.689   0.645   0.641   0.624   0.579   0.556   0.560   0.569   0.503   0.522   0.512   0.553   0.544   0.554   0.631   0.631   0.670   0.636   0.625   0.633   0.634   0.621   0.574   0.585   0.564   0.526   0.543   0.515   0.498   0.510   0.503   0.520   0.497   0.495   0.484   0.541   0.562   0.614   0.569   0.551   0.549   0.525   0.517   0.557   0.534   0.540   0.552   0.535   0.592   0.630   0.623   0.661   0.626   0.589   0.592   0.587   0.542   0.481   0.533   0.531   0.527   0.578   0.550   0.534   0.510   0.516   0.541   0.584   0.616   0.625   0.585   0.565   0.588   0.599   0.559   0.526   0.525   0.538   0.500   0.515   0.542   0.590   0.612   0.589   0.652   0.666   0.698   0.673   0.680   0.686   0.651   0.660   0.669   0.676   0.667   0.669   0.704   0.686   0.682   0.646   0.670   0.692   0.720   0.735   0.712   0.721   0.698   0.685   0.699   0.693   0.634   0.649   0.629   0.635   0.597   0.542   0.516   0.535   0.532   0.542   0.576   0.587   0.577   0.606   0.607   0.584   0.572   0.569   0.603   0.561   0.556   0.606   0.570   0.551   0.578   0.569   0.560   0.543   0.513   0.483   0.512   0.565   0.564   0.538   0.552   0.604   0.580   0.559   0.588   0.610   0.663   0.676   0.616   0.614   0.546   0.548   0.597   0.565   0.571   0.594   0.566   0.571   0.629   0.603   0.652   0.636   0.598   0.589   0.609   0.637   0.603   0.587   0.571   0.582   0.599   0.545   0.545   0.564   0.559   0.574   0.556   0.588   0.564   0.569   0.577   0.582   0.549
   187.00    0.737   0.726   0.738   0.723   0.725   0.676   0.679   0.673   0.662   0.604   0.559   0.554   0.563   0.601   0.552   0.544   0.545   0.538   0.570   0.535   0.618   0.617   0.642   0.609   0.595   0.601   0.582   0.560   0.568   0.543   0.553   0.539   0.553   0.540   0.544   0.546   0.528   0.487   0.511   0.471   0.471   0.517   0.583   0.591   0.627   0.620   0.575   0.552   0.500   0.543   0.523   0.560   0.553   0.572   0.573   0.589   0.605   0.638   0.628   0.593   0.576   0.578   0.565   0.564   0.561   0.564   0.558   0.610   0.605   0.551   0.540   0.529   0.523   0.548   0.554   0.567   0.593   0.587   0.576   0.582   0.544   0.538   0.564   0.525   0.534   0.533   0.543   0.583   0.592   0.612   0.648   0.633   0.673   0.658   0.644   0.641   0.655   0.625   0.659   0.624   0.617   0.639   0.649   0.667   0.685   0.661   0.682   0.702   0.763   0.744   0.763   0.752   0.717   0.701   0.704   0.722   0.642   0.628   0.654   0.628   0.594   0.551   0.554   0.518   0.502   0.531   0.530   0.581   0.597   0.598   0.609   0.612   0.639   0.601   0.588   0.587   0.594   0.594   0.590   0.591   0.607   0.577   0.555   0.528   0.507   0.480   0.552   0.572   0.555   0.550   0.533   0.581   0.590   0.576   0.584   0.615   0.663   0.666   0.643   0.598   0.578   0.572   0.563   0.585   0.567   0.573   0.594   0.605   0.615   0.637   0.654   0.629   0.594   0.612   0.601   0.631   0.616   0.616   0.628   0.625   0.565   0.546   0.556   0.610   0.604   0.580   0.547   0.586   0.569   0.562   0.557   0.570   0.585
   177.70    0.713   0.784   0.728   0.754   0.756   0.680   0.664   0.661   0.643   0.624   0.593   0.581   0.579   0.635   0.560   0.576   0.519   0.550   0.630   0.612   0.596   0.616   0.616   0.581   0.602   0.619   0.573   0.575   0.539   0.549   0.588   0.582   0.548   0.531   0.512   0.545   0.520   0.492   0.492   0.517   0.490   0.511   0.563   0.579   0.623   0.642   0.613   0.547   0.512   0.519   0.516   0.556   0.590   0.582   0.556   0.551   0.574   0.571   0.554   0.568   0.561   0.560   0.568   0.563   0.571   0.547   0.584   0.613   0.571   0.617   0.556   0.552   0.544   0.572   0.540   0.567   0.604   0.608   0.608   0.608   0.548   0.550   0.596   0.563   0.552   0.553   0.563   0.589   0.588   0.613   0.654   0.620   0.583   0.602   0.603   0.597   0.607   0.619   0.611   0.660   0.711   0.665   0.628   0.648   0.617   0.668   0.644   0.711   0.715   0.786   0.767   0.704   0.681   0.698   0.698   0.697   0.686   0.635   0.627   0.582   0.566   0.514   0.499   0.534   0.504   0.567   0.580   0.595   0.615   0.601   0.603   0.615   0.638   0.629   0.623   0.630   0.622   0.571   0.547   0.582   0.575   0.571   0.550   0.518   0.535   0.500   0.519   0.542   0.583   0.553   0.556   0.603   0.651   0.605   0.578   0.594   0.648   0.650   0.651   0.600   0.587   0.547   0.566   0.579   0.552   0.543   0.581   0.548   0.607   0.655   0.617   0.633   0.611   0.588   0.614   0.632   0.668   0.640   0.630   0.596   0.602   0.584   0.608   0.628   0.607   0.588   0.579   0.574   0.599   0.583   0.600   0.557   0.586
   168.40    0.744   0.766   0.745   0.721   0.687   0.681   0.663   0.652   0.633   0.639   0.607   0.593   0.610   0.596   0.588   0.549   0.553   0.560   0.599   0.614   0.637   0.615   0.590   0.560   0.548   0.581   0.559   0.564   0.569   0.573   0.587   0.586   0.562   0.544   0.505   0.497   0.511   0.472   0.520   0.503   0.489   0.487   0.500   0.552   0.588   0.634   0.607   0.577   0.544   0.543   0.568   0.575   0.567   0.561   0.547   0.570   0.561   0.618   0.578   0.587   0.549   0.560   0.596   0.578   0.609   0.555   0.561   0.577   0.590   0.609   0.579   0.574   0.574   0.561   0.577   0.594   0.603   0.618   0.600   0.609   0.587   0.592   0.578   0.579   0.546   0.578   0.574   0.542   0.561   0.563   0.608   0.653   0.608   0.616   0.600   0.563   0.599   0.610   0.616   0.662   0.654   0.637   0.662   0.655   0.679   0.693   0.703   0.716   0.695   0.726   0.757   0.699   0.706   0.691   0.705   0.728   0.710   0.643   0.621   0.604   0.549   0.506   0.493   0.512   0.530   0.564   0.563   0.563   0.584   0.620   0.634   0.655   0.657   0.645   0.650   0.665   0.635   0.606   0.589   0.612   0.551   0.544   0.541   0.555   0.528   0.520   0.520   0.554   0.561   0.566   0.558   0.576   0.571   0.598   0.557   0.593   0.607   0.631   0.646   0.589   0.560   0.537   0.570   0.593   0.568   0.575   0.564   0.555   0.580   0.614   0.601   0.598   0.583   0.581   0.587   0.635   0.669   0.636   0.626   0.574   0.617   0.588   0.590   0.591   0.564   0.599   0.585   0.646   0.627   0.624   0.608   0.563   0.579
   159.10    0.683   0.699   0.656   0.661   0.688   0.666   0.644   0.645   0.625   0.599   0.604   0.618   0.599   0.625   0.615   0.607   0.589   0.569   0.585   0.602   0.569   0.559   0.557   0.527   0.560   0.560   0.575   0.550   0.598   0.601   0.579   0.608   0.555   0.513   0.543   0.505   0.485   0.487   0.502   0.446   0.462   0.483   0.490   0.510   0.568   0.591   0.553   0.590   0.596   0.580   0.582   0.577   0.613   0.600   0.518   0.581   0.585   0.651   0.661   0.600   0.576   0.588   0.566   0.606   0.593   0.606   0.561   0.562   0.587   0.570   0.613   0.580   0.593   0.581   0.617   0.604   0.616   0.610   0.610   0.598   0.595   0.534   0.547   0.530   0.518   0.563   0.597   0.551   0.546   0.555   0.597   0.595   0.649   0.619   0.582   0.547   0.603   0.600   0.641   0.637   0.620   0.664   0.657   0.671   0.703   0.727   0.762   0.726   0.753   0.719   0.693   0.688   0.693   0.691   0.667   0.678   0.676   0.655   0.639   0.570   0.576   0.567   0.515   0.490   0.536   0.578   0.574   0.590   0.578   0.617   0.642   0.608   0.652   0.611   0.636   0.612   0.619   0.614   0.578   0.575   0.576   0.580   0.553   0.543   0.535   0.504   0.546   0.563   0.558   0.509   0.546   0.531   0.533   0.561   0.537   0.554   0.598   0.605   0.577   0.590   0.575   0.570   0.606   0.602   0.577   0.576   0.602   0.557   0.555   0.586   0.612   0.607   0.600   0.561   0.583   0.614   0.627   0.620   0.616   0.589   0.585   0.586   0.574   0.612   0.586   0.608   0.631   0.637   0.615   0.638   0.589   0.586   0.585
   149.80    0.663   0.666   0.649   0.654   0.699   0.677   0.638   0.657   0.668   0.603   0.623   0.603   0.590   0.634   0.597   0.601   0.581   0.589   0.549   0.596   0.589   0.527   0.532   0.534   0.526   0.530   0.530   0.555   0.588   0.617   0.576   0.600   0.555   0.522   0.550   0.519   0.479   0.486   0.474   0.465   0.455   0.439   0.479   0.489   0.533   0.530   0.518   0.584   0.595   0.570   0.596   0.620   0.597   0.563   0.560   0.581   0.610   0.637   0.619   0.579   0.604   0.581   0.569   0.582   0.574   0.587   0.592   0.587   0.561   0.621   0.596   0.612   0.635   0.607   0.595   0.610   0.596   0.580   0.580   0.586   0.572   0.546   0.530   0.551   0.567   0.570   0.516   0.548   0.563   0.598   0.580   0.629   0.627   0.598   0.585   0.560   0.632   0.664   0.634   0.668   0.695   0.674   0.660   0.634   0.669   0.741   0.706   0.723   0.668   0.676   0.678   0.673   0.662   0.691   0.684   0.664   0.682   0.619   0.612   0.558   0.596   0.545   0.505   0.497   0.538   0.559   0.564   0.552   0.577   0.567   0.597   0.610   0.591   0.581   0.554   0.588   0.555   0.562   0.597   0.573   0.575   0.604   0.624   0.595   0.587   0.549   0.574   0.599   0.543   0.557   0.559   0.509   0.536   0.553   0.505   0.559   0.587   0.600   0.557   0.531   0.550   0.565   0.594   0.578   0.555   0.555   0.562   0.577   0.586   0.577   0.583   0.603   0.642   0.580   0.587   0.624   0.627   0.642   0.613   0.570   0.578   0.583   0.605   0.594   0.603   0.612   0.624   0.619   0.597   0.607   0.587   0.601   0.592
   140.50    0.676   0.638   0.630   0.613   0.667   0.671   0.623   0.650   0.643   0.577   0.594   0.605   0.617   0.655   0.606   0.626   0.609   0.608   0.580   0.551   0.549   0.545   0.541   0.500   0.512   0.531   0.535   0.548   0.566   0.620   0.572   0.569   0.554   0.553   0.501   0.499   0.482   0.503   0.489   0.458   0.428   0.435   0.441   0.517   0.527   0.538   0.562   0.583   0.569   0.599   0.589   0.611   0.622   0.576   0.582   0.548   0.576   0.649   0.593   0.597   0.601   0.596   0.608   0.586   0.600   0.615   0.664   0.625   0.638   0.651   0.630   0.622   0.634   0.629   0.589   0.608   0.581   0.571   0.530   0.580   0.559   0.570   0.529   0.561   0.588   0.589   0.533   0.518   0.570   0.568   0.621   0.584   0.582   0.613   0.630   0.599   0.650   0.691   0.629   0.676   0.679   0.653   0.636   0.662   0.697   0.723   0.693   0.698   0.665   0.640   0.640   0.686   0.661   0.699   0.654   0.630   0.623   0.593   0.556   0.535   0.554   0.499   0.493   0.503   0.521   0.529   0.519   0.513   0.536   0.498   0.568   0.571   0.539   0.564   0.560   0.546   0.516   0.534   0.566   0.558   0.565   0.564   0.566   0.594   0.547   0.508   0.561   0.567   0.561   0.525   0.583   0.559   0.543   0.526   0.529   0.549   0.571   0.608   0.565   0.561   0.543   0.577   0.529   0.540   0.506   0.488   0.515   0.538   0.556   0.539   0.618   0.620   0.603   0.583   0.587   0.617   0.618   0.614   0.609   0.593   0.571   0.534   0.566   0.537   0.570   0.634   0.612   0.628   0.620   0.604   0.560   0.559   0.579
   131.20    0.682   0.634   0.687   0.660   0.733   0.686   0.653   0.627   0.650   0.606   0.635   0.609   0.607   0.598   0.599   0.601   0.583   0.582   0.555   0.518   0.514   0.500   0.528   0.510   0.484   0.493   0.499   0.500   0.514   0.554   0.551   0.560   0.543   0.534   0.492   0.462   0.502   0.502   0.454   0.471   0.458   0.471   0.439   0.524   0.547   0.554   0.546   0.551   0.583   0.574   0.570   0.576   0.551   0.543   0.562   0.559   0.558   0.587   0.618   0.620   0.566   0.592   0.560   0.589   0.622   0.611   0.645   0.628   0.669   0.662   0.640   0.658   0.649   0.632   0.604   0.585   0.553   0.555   0.530   0.576   0.587   0.601   0.571   0.558   0.579   0.570   0.548   0.556   0.561   0.584   0.595   0.608   0.568   0.621   0.626   0.619   0.632   0.682   0.673   0.667   0.644   0.659   0.606   0.681   0.672   0.691   0.666   0.689   0.654   0.661   0.685   0.636   0.634   0.658   0.611   0.629   0.616   0.567   0.525   0.506   0.503   0.459   0.496   0.502   0.519   0.525   0.521   0.497   0.506   0.528   0.562   0.573   0.542   0.541   0.521   0.508   0.525   0.535   0.553   0.526   0.546   0.526   0.537   0.584   0.576   0.558   0.542   0.529   0.522   0.559   0.542   0.541   0.488   0.504   0.547   0.561   0.552   0.557   0.536   0.588   0.565   0.582   0.544   0.530   0.483   0.493   0.513   0.506   0.541   0.567   0.586   0.593   0.624   0.611   0.626   0.599   0.619   0.617   0.617   0.610   0.579   0.561   0.560   0.594   0.585   0.599   0.603   0.610   0.613   0.630   0.569   0.551   0.545
   121.90    0.661   0.648   0.656   0.652   0.702   0.686   0.633   0.632   0.629   0.607   0.607   0.646   0.610   0.630   0.624   0.597   0.584   0.545   0.548   0.536   0.543   0.524   0.520   0.516   0.489   0.491   0.484   0.485   0.521   0.551   0.519   0.479   0.533   0.504   0.520   0.496   0.505   0.506   0.482   0.449   0.454   0.447   0.484   0.533   0.540   0.548   0.519   0.563   0.560   0.589   0.561   0.552   0.539   0.537   0.556   0.560   0.576   0.598   0.636   0.608   0.604   0.577   0.534   0.575   0.592   0.615   0.629   0.646   0.617   0.653   0.653   0.667   0.646   0.660   0.616   0.575   0.575   0.540   0.560   0.560   0.598   0.625   0.589   0.568   0.578   0.582   0.573   0.574   0.525   0.571   0.550   0.575   0.569   0.605   0.597   0.660   0.659   0.644   0.663   0.627   0.610   0.636   0.632   0.668   0.668   0.645   0.659   0.669   0.665   0.695   0.672   0.637   0.609   0.650   0.670   0.640   0.611   0.560   0.534   0.541   0.510   0.496   0.496   0.518   0.571   0.522   0.509   0.502   0.528   0.526   0.544   0.573   0.541   0.539   0.557   0.537   0.518   0.507   0.560   0.535   0.556   0.556   0.571   0.599   0.600   0.565   0.552   0.559   0.534   0.534   0.525   0.539   0.496   0.509   0.527   0.569   0.561   0.558   0.553   0.536   0.560   0.527   0.516   0.515   0.499   0.500   0.520   0.532   0.539   0.547   0.619   0.599   0.578   0.608   0.631   0.615   0.637   0.619   0.558   0.585   0.610   0.564   0.557   0.585   0.589   0.567   0.570   0.617   0.621   0.598   0.595   0.575   0.558
   112.60    0.667   0.612   0.640   0.635   0.636   0.637   0.656   0.604   0.600   0.590   0.597   0.598   0.592   0.619   0.601   0.605   0.582   0.577   0.551   0.560   0.569   0.547   0.551   0.507   0.514   0.516   0.484   0.506   0.514   0.532   0.480   0.508   0.520   0.476   0.515   0.481   0.498   0.499   0.486   0.483   0.466   0.481   0.525   0.545   0.550   0.561   0.532   0.542   0.569   0.566   0.560   0.539   0.500   0.528   0.561   0.579   0.618   0.588   0.615   0.625   0.600   0.608   0.609   0.584   0.632   0.681   0.674   0.644   0.643   0.668   0.714   0.697   0.691   0.657   0.631   0.619   0.568   0.563   0.586   0.546   0.597   0.605   0.591   0.578   0.531   0.554   0.554   0.580   0.561   0.567   0.547   0.524   0.556   0.589   0.549   0.618   0.628   0.665   0.686   0.632   0.616   0.618   0.636   0.626   0.632   0.621   0.612   0.627   0.646   0.650   0.631   0.627   0.611   0.634   0.619   0.635   0.629   0.572   0.567   0.567   0.515   0.508   0.502   0.547   0.564   0.545   0.524   0.487   0.487   0.480   0.526   0.533   0.569   0.544   0.542   0.550   0.515   0.516   0.568   0.573   0.576   0.572   0.596   0.562   0.585   0.594   0.592   0.536   0.605   0.591   0.545   0.504   0.501   0.524   0.543   0.582   0.548   0.556   0.519   0.547   0.510   0.527   0.521   0.513   0.496   0.491   0.536   0.558   0.550   0.573   0.586   0.611   0.610   0.634   0.672   0.609   0.617   0.581   0.538   0.539   0.582   0.551   0.576   0.580   0.573   0.541   0.557   0.558   0.581   0.580   0.549   0.565   0.532
   103.30    0.679   0.649   0.631   0.613   0.636   0.665   0.644   0.611   0.611   0.594   0.577   0.618   0.628   0.638   0.597   0.600   0.597   0.565   0.567   0.584   0.595   0.590   0.562   0.560   0.541   0.508   0.513   0.497   0.498   0.521   0.496   0.491   0.494   0.506   0.506   0.494   0.471   0.504   0.511   0.559   0.489   0.519   0.534   0.574   0.566   0.590   0.576   0.524   0.532   0.533   0.535   0.504   0.516   0.542   0.580   0.543   0.582   0.611   0.642   0.622   0.612   0.580   0.639   0.644   0.657   0.673   0.677   0.631   0.659   0.694   0.721   0.692   0.658   0.650   0.591   0.584   0.560   0.552   0.544   0.507   0.587   0.630   0.584   0.553   0.524   0.543   0.564   0.545   0.545   0.528   0.535   0.508   0.511   0.567   0.555   0.657   0.654   0.675   0.695   0.682   0.641   0.650   0.632   0.628   0.644   0.635   0.627   0.610   0.652   0.626   0.633   0.592   0.601   0.591   0.637   0.629   0.653   0.596   0.539   0.543   0.535   0.541   0.539   0.536   0.541   0.534   0.525   0.524   0.513   0.462   0.509   0.530   0.544   0.546   0.571   0.565   0.523   0.527   0.573   0.549   0.622   0.565   0.592   0.569   0.563   0.554   0.596   0.601   0.600   0.561   0.550   0.508   0.497   0.548   0.551   0.562   0.537   0.532   0.528   0.540   0.507   0.510   0.555   0.518   0.509   0.520   0.510   0.537   0.566   0.571   0.545   0.565   0.599   0.621   0.645   0.621   0.620   0.556   0.564   0.590   0.577   0.575   0.618   0.618   0.615   0.569   0.536   0.548   0.552   0.573   0.560   0.551   0.537
    94.00    0.665   0.651   0.660   0.647   0.670   0.643   0.640   0.628   0.612   0.610   0.610   0.574   0.658   0.647   0.609   0.604   0.574   0.562   0.570   0.547   0.595   0.622   0.599   0.569   0.555   0.532   0.522   0.527   0.496   0.539   0.512   0.483   0.488   0.469   0.521   0.505   0.527   0.515   0.519   0.542   0.534   0.557   0.556   0.540   0.562   0.564   0.520   0.510   0.517   0.540   0.534   0.515   0.524   0.511   0.518   0.566   0.546   0.559   0.598   0.612   0.597   0.605   0.612   0.660   0.638   0.670   0.665   0.650   0.690   0.678   0.649   0.615   0.635   0.626   0.588   0.541   0.570   0.550   0.520   0.508   0.558   0.588   0.597   0.532   0.550   0.545   0.541   0.566   0.554   0.562   0.526   0.523   0.489   0.524   0.600   0.640   0.657   0.674   0.692   0.684   0.645   0.636   0.615   0.612   0.599   0.605   0.583   0.618   0.620   0.573   0.600   0.570   0.591   0.587   0.584   0.613   0.648   0.599   0.549   0.557   0.519   0.527   0.542   0.538   0.568   0.560   0.526   0.475   0.504   0.498   0.503   0.496   0.538   0.568   0.553   0.593   0.580   0.581   0.567   0.575   0.574   0.550   0.573   0.558   0.580   0.599   0.597   0.608   0.620   0.572   0.562   0.531   0.511   0.535   0.546   0.524   0.524   0.501   0.490   0.524   0.499   0.519   0.517   0.544   0.529   0.493   0.516   0.536   0.537   0.532   0.520   0.540   0.561   0.569   0.619   0.590   0.602   0.560   0.528   0.552   0.587   0.642   0.661   0.640   0.584   0.588   0.530   0.554   0.544   0.535   0.557   0.529   0.493
    84.70    0.670   0.659   0.682   0.655   0.642   0.624   0.628   0.639   0.620   0.634   0.619   0.589   0.664   0.675   0.643   0.623   0.644   0.614   0.596   0.578   0.625   0.624   0.598   0.586   0.567   0.596   0.545   0.532   0.570   0.560   0.559   0.480   0.480   0.531   0.524   0.561   0.567   0.506   0.526   0.541   0.536   0.549   0.564   0.530   0.548   0.533   0.531   0.496   0.537   0.519   0.552   0.529   0.496   0.544   0.546   0.557   0.573   0.587   0.569   0.601   0.566   0.575   0.602   0.624   0.607   0.666   0.731   0.697   0.658   0.665   0.658   0.629   0.631   0.638   0.564   0.596   0.547   0.509   0.520   0.528   0.562   0.566   0.563   0.542   0.562   0.539   0.548   0.514   0.568   0.548   0.549   0.533   0.547   0.527   0.578   0.622   0.610   0.651   0.708   0.674   0.665   0.632   0.631   0.599   0.584   0.587   0.592   0.603   0.605   0.595   0.610   0.599   0.588   0.588   0.572   0.583   0.620   0.569   0.515   0.531   0.516   0.494   0.516   0.551   0.539   0.570   0.564   0.524   0.494   0.533   0.560   0.551   0.541   0.530   0.562   0.599   0.552   0.591   0.563   0.548   0.540   0.506   0.549   0.569   0.594   0.622   0.602   0.606   0.585   0.577   0.610   0.561   0.512   0.521   0.561   0.525   0.500   0.465   0.494   0.520   0.534   0.487   0.489   0.530   0.527   0.506   0.531   0.504   0.534   0.516   0.548   0.584   0.576   0.579   0.567   0.576   0.575   0.532   0.577   0.595   0.677   0.663   0.648   0.641   0.608   0.578   0.549   0.564   0.568   0.592   0.569   0.512   0.522
    75.40    0.658   0.694   0.686   0.662   0.643   0.622   0.612   0.635   0.652   0.632   0.618   0.603   0.628   0.634   0.652   0.644   0.627   0.610   0.621   0.628   0.639   0.617   0.603   0.566   0.580   0.614   0.582   0.572   0.603   0.588   0.554   0.528   0.494   0.520   0.538   0.545   0.534   0.498   0.505   0.515   0.518   0.564   0.554   0.582   0.595   0.624   0.587   0.531   0.537   0.536   0.542   0.540   0.529   0.510   0.542   0.552   0.560   0.593   0.616   0.604   0.587   0.589   0.589   0.610   0.618   0.662   0.699   0.692   0.692   0.640   0.642   0.659   0.652   0.641   0.626   0.590   0.613   0.551   0.557   0.550   0.551   0.561   0.569   0.546   0.588   0.599   0.587   0.584   0.613   0.574   0.547   0.547   0.571   0.536   0.588   0.603   0.608   0.620   0.701   0.691   0.648   0.570   0.585   0.570   0.587   0.575   0.556   0.583   0.625   0.610   0.642   0.657   0.612   0.601   0.601   0.567   0.550   0.560   0.544   0.540   0.516   0.528   0.526   0.547   0.542   0.519   0.511   0.501   0.533   0.510   0.558   0.549   0.536   0.554   0.569   0.582   0.570   0.575   0.561   0.535   0.559   0.546   0.533   0.557   0.589   0.577   0.578   0.606   0.589   0.574   0.595   0.555   0.568   0.564   0.534   0.543   0.497   0.457   0.493   0.498   0.491   0.473   0.487   0.524   0.546   0.528   0.493   0.516   0.538   0.549   0.525   0.577   0.611   0.574   0.551   0.565   0.572   0.578   0.579   0.578   0.632   0.675   0.627   0.620   0.622   0.589   0.530   0.553   0.553   0.587   0.579   0.560   0.546
    66.10    0.662   0.663   0.686   0.677   0.660   0.659   0.662   0.633   0.633   0.609   0.612   0.572   0.609   0.636   0.636   0.653   0.633   0.628   0.634   0.630   0.640   0.619   0.592   0.573   0.555   0.568   0.574   0.568   0.613   0.592   0.564   0.567   0.563   0.592   0.527   0.541   0.570   0.546   0.509   0.557   0.586   0.597   0.565   0.616   0.637   0.632   0.600   0.556   0.553   0.542   0.555   0.498   0.502   0.512   0.528   0.559   0.592   0.592   0.603   0.605   0.599   0.591   0.622   0.631   0.593   0.661   0.685   0.700   0.632   0.678   0.611   0.627   0.605   0.603   0.602   0.625   0.589   0.573   0.583   0.527   0.552   0.551   0.594   0.586   0.603   0.598   0.610   0.604   0.592   0.576   0.557   0.536   0.531   0.540   0.569   0.590   0.613   0.650   0.673   0.688   0.638   0.586   0.585   0.566   0.601   0.562   0.574   0.578   0.613   0.571   0.627   0.626   0.630   0.618   0.583   0.600   0.583   0.565   0.527   0.545   0.544   0.571   0.581   0.538   0.558   0.528   0.501   0.544   0.564   0.534   0.517   0.529   0.551   0.547   0.554   0.569   0.539   0.570   0.579   0.542   0.568   0.532   0.571   0.528   0.556   0.564   0.590   0.620   0.596   0.556   0.554   0.572   0.584   0.604   0.537   0.510   0.511   0.483   0.506   0.480   0.481   0.512   0.518   0.554   0.552   0.571   0.556   0.577   0.535   0.531   0.552   0.550   0.560   0.564   0.550   0.579   0.568   0.556   0.555   0.571   0.625   0.649   0.640   0.619   0.616   0.616   0.569   0.566   0.564   0.580   0.511   0.528   0.566
    56.80    0.734   0.726   0.714   0.681   0.624   0.645   0.617   0.621   0.633   0.666   0.641   0.627   0.594   0.586   0.620   0.623   0.649   0.612   0.588   0.632   0.651   0.662   0.614   0.556   0.568   0.592   0.605   0.561   0.605   0.594   0.580   0.578   0.555   0.576   0.560   0.580   0.567   0.559   0.554   0.572   0.610   0.587   0.584   0.596   0.599   0.588   0.597   0.569   0.573   0.575   0.561   0.535   0.493   0.521   0.541   0.582   0.554   0.613   0.597   0.597   0.600   0.661   0.629   0.662   0.656   0.635   0.697   0.666   0.644   0.627   0.630   0.654   0.617   0.608   0.606   0.570   0.602   0.582   0.573   0.550   0.548   0.534   0.570   0.601   0.629   0.600   0.615   0.603   0.575   0.523   0.548   0.580   0.571   0.565   0.553   0.581   0.621   0.663   0.682   0.675   0.673   0.633   0.625   0.601   0.594   0.596   0.603   0.590   0.554   0.592   0.636   0.655   0.595   0.662   0.653   0.621   0.585   0.587   0.547   0.586   0.603   0.623   0.574   0.563   0.561   0.517   0.495   0.528   0.527   0.520   0.530   0.542   0.566   0.555   0.539   0.520   0.523   0.532   0.557   0.560   0.567   0.569   0.563   0.548   0.570   0.580   0.547   0.577   0.588   0.552   0.562   0.552   0.544   0.564   0.545   0.547   0.514   0.502   0.498   0.492   0.534   0.516   0.568   0.584   0.539   0.549   0.553   0.577   0.543   0.557   0.559   0.504   0.530   0.538   0.532   0.531   0.552   0.530   0.523   0.582   0.587   0.609   0.618   0.609   0.569   0.583   0.570   0.568   0.569   0.573   0.556   0.496   0.543
    47.50    0.684   0.691   0.681   0.654   0.604   0.566   0.563   0.596   0.648   0.628   0.643   0.642   0.601   0.578   0.631   0.626   0.603   0.628   0.636   0.626   0.680   0.655   0.611   0.598   0.572   0.585   0.565   0.547   0.580   0.619   0.607   0.626   0.627   0.586   0.586   0.650   0.602   0.578   0.583   0.597   0.620   0.591   0.557   0.611   0.617   0.620   0.586   0.579   0.597   0.600   0.570   0.526   0.499   0.501   0.537   0.516   0.564   0.623   0.617   0.616   0.620   0.691   0.643   0.637   0.654   0.701   0.666   0.667   0.618   0.606   0.625   0.630   0.619   0.594   0.596   0.574   0.587   0.593   0.565   0.552   0.542   0.558   0.562   0.598   0.615   0.587   0.587   0.599   0.556   0.551   0.514   0.517   0.563   0.565   0.573   0.585   0.628   0.651   0.697   0.669   0.633   0.625   0.636   0.619   0.573   0.603   0.598   0.591   0.587   0.566   0.617   0.589   0.597   0.637   0.660   0.630   0.619   0.596   0.556   0.588   0.615   0.624   0.597   0.578   0.585   0.529   0.545   0.522   0.502   0.498   0.510   0.513   0.583   0.570   0.516   0.494   0.535   0.511   0.542   0.559   0.557   0.582   0.572   0.548   0.543   0.552   0.566   0.573   0.570   0.601   0.597   0.564   0.559   0.529   0.534   0.572   0.509   0.534   0.543   0.512   0.501   0.541   0.537   0.532   0.558   0.550   0.525   0.535   0.560   0.600   0.567   0.558   0.581   0.596   0.605   0.554   0.519   0.528   0.567   0.578   0.584   0.593   0.610   0.565   0.560   0.566   0.577   0.557   0.574   0.587   0.566   0.503   0.511
    38.20    0.645   0.636   0.650   0.606   0.569   0.569   0.528   0.560   0.599   0.647   0.627   0.630   0.588   0.587   0.592   0.638   0.628   0.627   0.674   0.655   0.667   0.627   0.581   0.595   0.554   0.553   0.565   0.535   0.521   0.572   0.597   0.627   0.615   0.620   0.594   0.618   0.574   0.623   0.619   0.637   0.630   0.633   0.599   0.596   0.608   0.596   0.589   0.597   0.587   0.600   0.536   0.520   0.504   0.503   0.482   0.552   0.571   0.580   0.607   0.675   0.711   0.714   0.703   0.707   0.694   0.685   0.641   0.629   0.616   0.564   0.569   0.577   0.579   0.570   0.597   0.611   0.578   0.569   0.546   0.562   0.581   0.550   0.563   0.586   0.584   0.583   0.546   0.581   0.601   0.575   0.548   0.543   0.580   0.565   0.604   0.623   0.662   0.672   0.646   0.657   0.647   0.655   0.613   0.577   0.567   0.605   0.626   0.596   0.636   0.631   0.614   0.620   0.594   0.613   0.644   0.646   0.627   0.618   0.615   0.592   0.610   0.618   0.547   0.552   0.554   0.541   0.555   0.520   0.497   0.526   0.526   0.552   0.616   0.562   0.550   0.535   0.542   0.511   0.520   0.541   0.538   0.549   0.557   0.531   0.523   0.573   0.587   0.535   0.560   0.580   0.581   0.557   0.578   0.526   0.544   0.576   0.573   0.581   0.558   0.575   0.557   0.532   0.567   0.542   0.525   0.488   0.521   0.524   0.569   0.585   0.549   0.558   0.611   0.621   0.605   0.548   0.517   0.534   0.553   0.596   0.587   0.597   0.613   0.558   0.557   0.570   0.593   0.562   0.584   0.563   0.536   0.537   0.519
    28.90    0.603   0.646   0.590   0.620   0.583   0.572   0.558   0.536   0.587   0.623   0.624   0.580   0.599   0.589   0.576   0.604   0.619   0.634   0.669   0.654   0.620   0.591   0.574   0.587   0.530   0.559   0.552   0.519   0.561   0.561   0.582   0.600   0.641   0.631   0.652   0.625   0.612   0.578   0.598   0.612   0.607   0.628   0.612   0.636   0.614   0.604   0.600   0.618   0.600   0.578   0.583   0.548   0.478   0.478   0.483   0.553   0.598   0.598   0.644   0.629   0.697   0.658   0.680   0.706   0.689   0.664   0.629   0.575   0.553   0.560   0.507   0.586   0.557   0.582   0.605   0.613   0.575   0.532   0.535   0.531   0.571   0.547   0.518   0.527   0.537   0.546   0.514   0.535   0.592   0.587   0.573   0.576   0.576   0.605   0.669   0.657   0.650   0.669   0.672   0.634   0.667   0.673   0.595   0.578   0.586   0.618   0.616   0.629   0.648   0.628   0.627   0.608   0.605   0.632   0.645   0.638   0.632   0.601   0.619   0.584   0.611   0.607   0.556   0.565   0.545   0.545   0.543   0.529   0.515   0.531   0.577   0.577   0.616   0.579   0.578   0.570   0.550   0.581   0.552   0.587   0.564   0.530   0.524   0.529   0.542   0.550   0.550   0.539   0.540   0.587   0.566   0.544   0.550   0.527   0.537   0.554   0.586   0.579   0.552   0.566   0.581   0.581   0.570   0.561   0.558   0.539   0.520   0.546   0.526   0.543   0.584   0.588   0.620   0.610   0.620   0.588   0.543   0.530   0.563   0.586   0.607   0.590   0.578   0.578   0.571   0.534   0.570   0.530   0.548   0.581   0.593   0.541   0.554
    19.60    0.590   0.611   0.617   0.639   0.585   0.574   0.500   0.509   0.562   0.531   0.595   0.583   0.601   0.562   0.580   0.618   0.641   0.675   0.641   0.603   0.566   0.578   0.610   0.576   0.534   0.559   0.568   0.573   0.598   0.569   0.600   0.608   0.637   0.651   0.650   0.629   0.581   0.558   0.601   0.605   0.619   0.593   0.607   0.584   0.555   0.576   0.614   0.607   0.621   0.644   0.616   0.573   0.601   0.572   0.575   0.615   0.633   0.655   0.639   0.625   0.665   0.661   0.639   0.655   0.628   0.631   0.598   0.548   0.518   0.545   0.559   0.547   0.608   0.581   0.602   0.638   0.609   0.548   0.574   0.551   0.524   0.530   0.509   0.476   0.474   0.538   0.549   0.517   0.590   0.577   0.580   0.567   0.587   0.599   0.644   0.652   0.660   0.668   0.689   0.666   0.691   0.677   0.697   0.648   0.665   0.612   0.622   0.603   0.598   0.576   0.560   0.563   0.620   0.652   0.687   0.658   0.653   0.599   0.605   0.614   0.576   0.597   0.569   0.541   0.560   0.549   0.566   0.557   0.578   0.537   0.550   0.578   0.573   0.601   0.585   0.509   0.543   0.553   0.550   0.585   0.533   0.525   0.521   0.531   0.552   0.529   0.524   0.561   0.566   0.575   0.550   0.535   0.510   0.531   0.525   0.559   0.545   0.602   0.575   0.597   0.586   0.611   0.545   0.533   0.511   0.508   0.524   0.545   0.535   0.538   0.573   0.585   0.595   0.631   0.611   0.612   0.590   0.545   0.549   0.610   0.586   0.610   0.633   0.594   0.577   0.556   0.526   0.536   0.530   0.534   0.547   0.532   0.533
    10.30    0.556   0.602   0.617   0.625   0.553   0.549   0.511   0.496   0.474   0.554   0.583   0.595   0.606   0.564   0.578   0.569   0.603   0.604   0.574   0.584   0.567   0.583   0.582   0.554   0.526   0.565   0.598   0.602   0.627   0.577   0.619   0.612   0.610   0.620   0.640   0.638   0.631   0.592   0.562   0.629   0.611   0.576   0.582   0.622   0.611   0.567   0.616   0.632   0.622   0.607   0.602   0.581   0.613   0.620   0.634   0.653   0.679   0.669   0.614   0.655   0.624   0.644   0.650   0.642   0.631   0.587   0.605   0.577   0.540   0.537   0.547   0.568   0.573   0.591   0.590   0.593   0.605   0.576   0.528   0.555   0.511   0.510   0.546   0.528   0.526   0.479   0.486   0.526   0.570   0.578   0.578   0.567   0.562   0.586   0.609   0.634   0.658   0.654   0.653   0.644   0.655   0.723   0.749   0.652   0.670   0.640   0.650   0.625   0.561   0.558   0.549   0.573   0.613   0.659   0.667   0.701   0.635   0.631   0.650   0.617   0.609   0.566   0.563   0.537   0.588   0.550   0.587   0.598   0.569   0.573   0.556   0.555   0.564   0.605   0.580   0.545   0.516   0.519   0.521   0.557   0.521   0.546   0.531   0.510   0.515   0.542   0.547   0.550   0.561   0.583   0.595   0.551   0.523   0.561   0.566   0.533   0.520   0.567   0.593   0.599   0.570   0.565   0.564   0.568   0.522   0.522   0.556   0.559   0.517   0.555   0.569   0.573   0.641   0.609   0.617   0.610   0.606   0.569   0.596   0.618   0.604   0.624   0.601   0.557   0.556   0.572   0.568   0.536   0.514   0.505   0.498   0.490   0.501
     1.00    0.573   0.579   0.589   0.571   0.586   0.539   0.502   0.487   0.503   0.526   0.548   0.592   0.550   0.593   0.547   0.547   0.563   0.540   0.556   0.539   0.535   0.532   0.527   0.546   0.574   0.611   0.614   0.630   0.668   0.603   0.599   0.569   0.633   0.582   0.630   0.633   0.653   0.604   0.576   0.592   0.579   0.592   0.625   0.584   0.588   0.569   0.603   0.631   0.600   0.571   0.587   0.572   0.576   0.590   0.623   0.647   0.684   0.659   0.627   0.620   0.658   0.626   0.635   0.586   0.577   0.553   0.558   0.585   0.556   0.571   0.549   0.532   0.539   0.572   0.594   0.577   0.571   0.577   0.550   0.537   0.530   0.515   0.552   0.524   0.525   0.488   0.507   0.519   0.524   0.562   0.557   0.526   0.554   0.572   0.561   0.579   0.621   0.635   0.669   0.698   0.682   0.702   0.680   0.649   0.625   0.624   0.649   0.603   0.580   0.586   0.592   0.598   0.615   0.585   0.639   0.688   0.652   0.667   0.655   0.641   0.562   0.566   0.569   0.602   0.601   0.569   0.600   0.566   0.580   0.575   0.576   0.600   0.579   0.579   0.557   0.543   0.516   0.512   0.573   0.561   0.524   0.517   0.500   0.504   0.474   0.521   0.550   0.579   0.605   0.605   0.605   0.572   0.566   0.569   0.588   0.596   0.573   0.557   0.577   0.589   0.609   0.603   0.570   0.563   0.556   0.537   0.546   0.566   0.504   0.543   0.573   0.622   0.629   0.636   0.640   0.652   0.632   0.601   0.604   0.587   0.592   0.607   0.558   0.535   0.533   0.543   0.540   0.517   0.531   0.541   0.487   0.517   0.507

   Height   Standard deviation at grid points for the v component:
   354.40    0.521   0.475   0.498   0.492   0.442   0.456   0.445   0.438   0.438   0.458   0.442   0.452   0.428   0.441   0.453   0.431   0.462   0.466   0.475   0.452   0.481   0.457   0.444   0.456   0.483   0.470   0.469   0.442   0.443   0.442   0.438   0.434   0.412   0.408   0.430   0.457   0.474   0.484   0.462   0.476   0.474   0.473   0.479   0.458   0.467   0.460   0.466   0.441   0.439   0.453   0.466   0.483   0.485   0.490   0.469   0.466   0.463   0.476   0.483   0.478   0.457   0.457   0.456   0.482   0.479   0.490   0.467   0.452   0.432   0.437   0.437   0.406   0.412   0.422   0.442   0.449   0.436   0.408   0.411   0.425   0.439   0.470   0.456   0.453   0.465   0.448   0.471   0.481   0.496   0.490   0.484   0.488   0.511   0.501   0.500   0.502   0.504   0.457   0.453   0.464   0.462   0.450   0.447   0.428   0.439   0.428   0.424   0.424   0.423   0.418   0.414   0.425   0.429   0.434   0.428   0.435   0.440   0.448   0.433   0.433   0.433   0.469   0.468   0.483   0.459   0.480   0.498   0.494   0.519   0.487   0.523   0.510   0.482   0.492   0.507   0.506   0.508   0.473   0.468   0.487   0.464   0.477   0.475   0.442   0.421   0.447   0.463   0.439   0.446   0.459   0.436   0.421   0.433   0.446   0.444   0.441   0.459   0.457   0.469   0.445   0.452   0.428   0.438   0.435   0.440   0.451   0.447   0.416   0.413   0.429   0.455   0.439   0.475   0.478   0.452   0.446   0.465   0.467   0.459   0.475   0.476   0.499   0.473   0.484   0.459   0.445   0.430   0.441   0.433   0.429   0.458   0.463   0.475
   345.10    0.494   0.477   0.458   0.446   0.447   0.450   0.442   0.438   0.431   0.458   0.455   0.442   0.434   0.422   0.423   0.420   0.443   0.464   0.465   0.457   0.489   0.457   0.442   0.464   0.489   0.494   0.478   0.487   0.449   0.436   0.428   0.428   0.417   0.407   0.437   0.438   0.459   0.455   0.472   0.466   0.484   0.461   0.460   0.476   0.475   0.447   0.450   0.446   0.461   0.453   0.457   0.451   0.480   0.489   0.497   0.486   0.493   0.477   0.479   0.456   0.453   0.439   0.447   0.455   0.492   0.484   0.476   0.439   0.427   0.431   0.438   0.433   0.426   0.425   0.433   0.418   0.429   0.429   0.390   0.414   0.431   0.451   0.461   0.481   0.465   0.475   0.475   0.482   0.505   0.510   0.476   0.495   0.496   0.498   0.521   0.500   0.478   0.457   0.474   0.461   0.471   0.470   0.458   0.429   0.417   0.426   0.421   0.435   0.428   0.436   0.427   0.443   0.440   0.441   0.458   0.463   0.452   0.453   0.476   0.458   0.444   0.475   0.470   0.504   0.486   0.503   0.514   0.502   0.504   0.496   0.520   0.538   0.527   0.530   0.549   0.513   0.511   0.486   0.480   0.464   0.470   0.474   0.466   0.451   0.457   0.434   0.456   0.466   0.461   0.444   0.439   0.426   0.437   0.445   0.459   0.474   0.464   0.463   0.468   0.463   0.456   0.440   0.409   0.424   0.439   0.451   0.447   0.410   0.415   0.409   0.440   0.461   0.464   0.443   0.446   0.435   0.452   0.459   0.469   0.482   0.480   0.486   0.480   0.483   0.466   0.451   0.449   0.426   0.435   0.448   0.460   0.467   0.474
   335.80    0.467   0.484   0.479   0.443   0.438   0.442   0.418   0.432   0.456   0.441   0.443   0.417   0.427   0.446   0.442   0.430   0.448   0.466   0.465   0.478   0.484   0.462   0.455   0.453   0.490   0.489   0.481   0.489   0.456   0.469   0.416   0.431   0.416   0.430   0.438   0.445   0.471   0.474   0.472   0.465   0.487   0.456   0.471   0.450   0.433   0.452   0.433   0.448   0.445   0.435   0.452   0.471   0.450   0.460   0.482   0.495   0.486   0.485   0.473   0.464   0.443   0.438   0.443   0.443   0.460   0.482   0.448   0.450   0.459   0.447   0.440   0.429   0.426   0.412   0.421   0.424   0.435   0.392   0.383   0.395   0.418   0.438   0.455   0.452   0.461   0.465   0.466   0.488   0.505   0.516   0.506   0.482   0.479   0.507   0.476   0.499   0.491   0.483   0.502   0.480   0.493   0.491   0.456   0.449   0.445   0.436   0.426   0.418   0.439   0.440   0.424   0.448   0.456   0.444   0.439   0.425   0.433   0.448   0.477   0.480   0.476   0.468   0.480   0.501   0.482   0.505   0.498   0.505   0.498   0.497   0.536   0.526   0.531   0.509   0.525   0.512   0.487   0.469   0.451   0.435   0.445   0.474   0.478   0.458   0.464   0.448   0.450   0.461   0.452   0.457   0.451   0.452   0.462   0.458   0.457   0.471   0.444   0.452   0.446   0.446   0.448   0.459   0.429   0.408   0.395   0.417   0.434   0.440   0.437   0.453   0.465   0.453   0.457   0.435   0.438   0.445   0.442   0.454   0.466   0.475   0.458   0.445   0.455   0.460   0.438   0.440   0.456   0.425   0.450   0.475   0.477   0.492   0.485
   326.50    0.458   0.473   0.462   0.455   0.422   0.409   0.392   0.434   0.470   0.442   0.441   0.434   0.443   0.423   0.441   0.431   0.445   0.455   0.478   0.493   0.489   0.472   0.443   0.447   0.492   0.497   0.466   0.490   0.474   0.442   0.429   0.416   0.427   0.443   0.442   0.451   0.457   0.479   0.473   0.471   0.480   0.476   0.464   0.426   0.439   0.451   0.438   0.430   0.450   0.452   0.472   0.454   0.452   0.452   0.492   0.483   0.483   0.489   0.471   0.460   0.450   0.460   0.477   0.474   0.462   0.483   0.472   0.453   0.450   0.459   0.448   0.465   0.434   0.421   0.418   0.431   0.405   0.401   0.394   0.384   0.393   0.437   0.439   0.436   0.462   0.444   0.462   0.471   0.498   0.488   0.491   0.481   0.471   0.498   0.499   0.488   0.478   0.490   0.476   0.465   0.473   0.485   0.455   0.457   0.437   0.420   0.443   0.430   0.419   0.430   0.449   0.447   0.452   0.458   0.461   0.441   0.425   0.440   0.456   0.470   0.484   0.518   0.500   0.496   0.487   0.479   0.507   0.494   0.486   0.511   0.497   0.516   0.523   0.518   0.516   0.513   0.501   0.475   0.432   0.441   0.456   0.478   0.480   0.480   0.493   0.478   0.470   0.453   0.460   0.452   0.462   0.490   0.501   0.483   0.491   0.463   0.471   0.467   0.464   0.444   0.455   0.448   0.441   0.423   0.409   0.427   0.426   0.420   0.438   0.435   0.435   0.450   0.483   0.461   0.462   0.439   0.444   0.443   0.443   0.449   0.451   0.450   0.440   0.445   0.454   0.456   0.459   0.444   0.465   0.476   0.476   0.513   0.511
[...]
   103.30    0.276   0.287   0.284   0.283   0.288   0.284   0.282   0.283   0.278   0.289   0.285   0.278   0.277   0.280   0.281   0.275   0.276   0.280   0.273   0.279   0.272   0.274   0.280   0.264   0.275   0.273   0.278   0.281   0.283   0.288   0.288   0.287   0.286   0.285   0.283   0.291   0.287   0.285   0.286   0.275   0.285   0.279   0.288   0.281   0.285   0.287   0.297   0.295   0.282   0.275   0.276   0.284   0.284   0.286   0.280   0.277   0.275   0.286   0.272   0.285   0.291   0.283   0.287   0.289   0.289   0.296   0.292   0.291   0.292   0.290   0.290   0.284   0.295   0.288   0.279   0.281   0.281   0.284   0.286   0.287   0.273   0.270   0.280   0.282   0.288   0.289   0.287   0.291   0.301   0.288   0.288   0.290   0.285   0.289   0.283   0.279   0.277   0.281   0.281   0.270   0.277   0.289   0.278   0.286   0.286   0.285   0.277   0.272   0.284   0.286   0.285   0.286   0.286   0.281   0.279   0.280   0.277   0.275   0.288   0.283   0.286   0.290   0.289   0.281   0.290   0.295   0.298   0.294   0.291   0.290   0.283   0.289   0.272   0.278   0.278   0.280   0.282   0.290   0.293   0.297   0.299   0.293   0.297   0.293   0.283   0.290   0.294   0.291   0.279   0.282   0.289   0.286   0.285   0.276   0.277   0.279   0.281   0.280   0.291   0.294   0.280   0.284   0.285   0.278   0.273   0.272   0.274   0.286   0.282   0.287   0.283   0.287   0.288   0.279   0.281   0.286   0.280   0.280   0.276   0.282   0.282   0.276   0.278   0.287   0.290   0.290   0.288   0.282   0.281   0.282   0.291   0.291   0.291
    94.00    0.277   0.282   0.283   0.279   0.293   0.289   0.282   0.277   0.283   0.275   0.275   0.282   0.283   0.279   0.279   0.274   0.272   0.283   0.278   0.276   0.280   0.286   0.273   0.264   0.263   0.278   0.279   0.279   0.282   0.293   0.294   0.296   0.295   0.282   0.281   0.282   0.288   0.285   0.277   0.281   0.283   0.289   0.287   0.295   0.296   0.294   0.290   0.277   0.285   0.282   0.275   0.287   0.287   0.270   0.276   0.278   0.281   0.292   0.297   0.295   0.292   0.288   0.289   0.293   0.293   0.290   0.291   0.293   0.293   0.283   0.294   0.292   0.295   0.296   0.276   0.274   0.282   0.277   0.277   0.272   0.283   0.281   0.281   0.286   0.286   0.299   0.282   0.297   0.296   0.293   0.290   0.292   0.296   0.291   0.289   0.286   0.288   0.285   0.287   0.280   0.287   0.280   0.282   0.279   0.285   0.281   0.280   0.275   0.285   0.282   0.286   0.282   0.280   0.287   0.286   0.287   0.273   0.277   0.278   0.295   0.290   0.280   0.279   0.277   0.279   0.288   0.293   0.293   0.286   0.278   0.283   0.284   0.277   0.285   0.280   0.290   0.289   0.290   0.291   0.300   0.300   0.299   0.289   0.284   0.279   0.284   0.289   0.284   0.284   0.283   0.290   0.292   0.282   0.280   0.277   0.290   0.286   0.280   0.276   0.286   0.286   0.281   0.285   0.282   0.280   0.281   0.276   0.274   0.278   0.280   0.281   0.287   0.281   0.280   0.281   0.289   0.292   0.286   0.278   0.280   0.286   0.288   0.282   0.279   0.288   0.295   0.296   0.288   0.292   0.298   0.300   0.289   0.293
    84.70    0.278   0.282   0.276   0.280   0.291   0.291   0.283   0.289   0.283   0.280   0.278   0.271   0.270   0.289   0.275   0.274   0.265   0.283   0.281   0.280   0.283   0.282   0.276   0.281   0.271   0.283   0.280   0.278   0.295   0.292   0.301   0.296   0.280   0.279   0.278   0.279   0.279   0.287   0.281   0.288   0.290   0.296   0.285   0.294   0.295   0.283   0.280   0.283   0.280   0.282   0.290   0.289   0.285   0.275   0.274   0.273   0.279   0.287   0.283   0.285   0.294   0.289   0.290   0.286   0.284   0.285   0.298   0.289   0.293   0.297   0.295   0.296   0.293   0.294   0.296   0.286   0.283   0.286   0.287   0.278   0.283   0.284   0.284   0.287   0.289   0.296   0.294   0.293   0.301   0.310   0.298   0.291   0.299   0.289   0.293   0.295   0.294   0.291   0.286   0.296   0.289   0.291   0.289   0.299   0.292   0.286   0.279   0.280   0.282   0.288   0.283   0.290   0.292   0.290   0.290   0.292   0.284   0.282   0.290   0.288   0.282   0.283   0.286   0.283   0.278   0.285   0.289   0.297   0.289   0.278   0.286   0.283   0.279   0.275   0.287   0.293   0.286   0.296   0.291   0.298   0.297   0.286   0.281   0.278   0.283   0.285   0.289   0.285   0.278   0.285   0.285   0.284   0.277   0.281   0.287   0.283   0.293   0.285   0.279   0.285   0.289   0.277   0.276   0.279   0.281   0.284   0.276   0.271   0.272   0.275   0.280   0.282   0.283   0.278   0.287   0.291   0.289   0.281   0.267   0.278   0.286   0.282   0.281   0.284   0.287   0.294   0.301   0.299   0.302   0.311   0.303   0.304   0.295
    75.40    0.277   0.282   0.285   0.297   0.290   0.290   0.289   0.278   0.291   0.282   0.283   0.275   0.288   0.292   0.287   0.293   0.282   0.282   0.297   0.284   0.285   0.278   0.281   0.277   0.273   0.277   0.275   0.279   0.286   0.294   0.293   0.298   0.294   0.285   0.268   0.283   0.290   0.275   0.279   0.284   0.290   0.282   0.281   0.289   0.283   0.278   0.278   0.282   0.279   0.276   0.281   0.280   0.272   0.279   0.275   0.258   0.278   0.283   0.275   0.277   0.286   0.270   0.282   0.283   0.280   0.287   0.295   0.296   0.302   0.302   0.306   0.294   0.299   0.301   0.289   0.285   0.296   0.288   0.289   0.279   0.275   0.286   0.279   0.288   0.291   0.301   0.300   0.299   0.303   0.304   0.301   0.296   0.296   0.293   0.302   0.295   0.290   0.301   0.297   0.292   0.292   0.292   0.295   0.297   0.291   0.279   0.285   0.284   0.278   0.287   0.279   0.283   0.284   0.289   0.294   0.288   0.285   0.281   0.284   0.280   0.280   0.286   0.290   0.288   0.286   0.288   0.288   0.294   0.289   0.281   0.297   0.294   0.278   0.286   0.293   0.295   0.290   0.286   0.287   0.295   0.286   0.278   0.275   0.273   0.279   0.287   0.292   0.284   0.273   0.287   0.277   0.277   0.277   0.279   0.283   0.298   0.293   0.282   0.286   0.282   0.277   0.282   0.281   0.264   0.276   0.289   0.286   0.279   0.275   0.277   0.283   0.286   0.277   0.288   0.282   0.288   0.286   0.279   0.273   0.272   0.272   0.283   0.281   0.289   0.283   0.286   0.295   0.297   0.298   0.304   0.299   0.300   0.294
    66.10    0.279   0.288   0.282   0.290   0.291   0.279   0.276   0.286   0.282   0.287   0.266   0.275   0.286   0.277   0.281   0.293   0.280   0.285   0.287   0.284   0.287   0.278   0.281   0.289   0.275   0.279   0.288   0.288   0.285   0.295   0.302   0.295   0.290   0.297   0.274   0.285   0.290   0.287   0.285   0.286   0.282   0.285   0.284   0.284   0.278   0.278   0.277   0.281   0.269   0.280   0.280   0.268   0.270   0.270   0.274   0.272   0.275   0.269   0.269   0.272   0.277   0.292   0.288   0.287   0.287   0.290   0.296   0.300   0.299   0.301   0.298   0.290   0.302   0.302   0.305   0.299   0.291   0.293   0.288   0.280   0.282   0.282   0.279   0.285   0.295   0.302   0.302   0.300   0.303   0.297   0.295   0.282   0.298   0.294   0.289   0.287   0.289   0.290   0.291   0.297   0.289   0.296   0.293   0.299   0.295   0.296   0.294   0.289   0.285   0.287   0.294   0.278   0.283   0.282   0.296   0.287   0.278   0.284   0.281   0.294   0.300   0.288   0.300   0.296   0.291   0.284   0.285   0.287   0.281   0.278   0.283   0.289   0.283   0.291   0.286   0.290   0.288   0.292   0.280   0.283   0.286   0.294   0.289   0.283   0.284   0.293   0.280   0.283   0.279   0.287   0.289   0.286   0.289   0.281   0.284   0.282   0.295   0.285   0.285   0.271   0.275   0.278   0.284   0.285   0.269   0.287   0.286   0.276   0.280   0.273   0.285   0.288   0.287   0.291   0.288   0.290   0.287   0.282   0.277   0.273   0.273   0.275   0.285   0.286   0.283   0.287   0.302   0.294   0.299   0.312   0.308   0.301   0.285
    56.80    0.284   0.284   0.288   0.282   0.270   0.279   0.273   0.281   0.283   0.283   0.278   0.281   0.284   0.289   0.280   0.278   0.282   0.280   0.284   0.280   0.271   0.282   0.277   0.279   0.276   0.276   0.279   0.284   0.283   0.280   0.289   0.290   0.298   0.298   0.288   0.290   0.284   0.286   0.290   0.286   0.291   0.296   0.280   0.279   0.278   0.275   0.275   0.277   0.279   0.270   0.273   0.273   0.275   0.285   0.265   0.268   0.269   0.265   0.274   0.276   0.282   0.285   0.286   0.277   0.280   0.289   0.301   0.296   0.307   0.303   0.298   0.295   0.302   0.296   0.295   0.298   0.281   0.296   0.286   0.287   0.287   0.278   0.286   0.300   0.301   0.295   0.303   0.298   0.304   0.307   0.300   0.305   0.298   0.294   0.281   0.280   0.293   0.290   0.280   0.288   0.306   0.296   0.302   0.304   0.303   0.290   0.289   0.290   0.288   0.292   0.297   0.284   0.286   0.284   0.284   0.290   0.278   0.282   0.281   0.283   0.291   0.296   0.292   0.294   0.287   0.285   0.292   0.293   0.299   0.287   0.284   0.281   0.284   0.290   0.289   0.283   0.287   0.287   0.290   0.285   0.290   0.292   0.290   0.289   0.283   0.290   0.294   0.292   0.280   0.284   0.281   0.292   0.295   0.282   0.281   0.285   0.294   0.286   0.274   0.268   0.272   0.270   0.284   0.287   0.277   0.291   0.287   0.283   0.290   0.274   0.286   0.285   0.291   0.287   0.292   0.286   0.291   0.278   0.286   0.278   0.280   0.276   0.280   0.292   0.287   0.290   0.290   0.292   0.311   0.302   0.301   0.288   0.292
    47.50    0.279   0.285   0.277   0.284   0.276   0.277   0.285   0.285   0.291   0.286   0.302   0.294   0.296   0.294   0.288   0.266   0.278   0.293   0.284   0.275   0.272   0.283   0.283   0.283   0.279   0.281   0.277   0.270   0.285   0.292   0.289   0.291   0.280   0.288   0.280   0.277   0.278   0.278   0.281   0.272   0.278   0.283   0.293   0.285   0.282   0.282   0.277   0.277   0.273   0.270   0.275   0.272   0.279   0.276   0.272   0.271   0.263   0.269   0.274   0.272   0.276   0.286   0.285   0.279   0.288   0.283   0.286   0.295   0.295   0.294   0.296   0.305   0.304   0.300   0.287   0.287   0.291   0.293   0.297   0.291   0.284   0.284   0.290   0.297   0.294   0.286   0.292   0.289   0.285   0.293   0.298   0.299   0.304   0.291   0.284   0.290   0.288   0.284   0.282   0.291   0.298   0.286   0.296   0.294   0.293   0.295   0.296   0.289   0.289   0.286   0.297   0.279   0.272   0.281   0.278   0.276   0.285   0.286   0.291   0.290   0.284   0.291   0.289   0.294   0.294   0.288   0.286   0.295   0.287   0.289   0.284   0.289   0.292   0.289   0.284   0.280   0.288   0.291   0.291   0.295   0.297   0.287   0.290   0.287   0.292   0.295   0.288   0.295   0.285   0.286   0.280   0.295   0.286   0.289   0.293   0.285   0.284   0.274   0.273   0.273   0.272   0.276   0.284   0.282   0.277   0.292   0.283   0.280   0.282   0.292   0.299   0.290   0.282   0.287   0.292   0.299   0.292   0.291   0.291   0.289   0.278   0.289   0.286   0.284   0.286   0.286   0.292   0.292   0.299   0.294   0.301   0.288   0.276
    38.20    0.276   0.278   0.286   0.283   0.289   0.273   0.281   0.288   0.287   0.292   0.300   0.306   0.303   0.293   0.284   0.288   0.281   0.290   0.282   0.281   0.272   0.285   0.277   0.271   0.282   0.280   0.281   0.291   0.286   0.291   0.293   0.293   0.279   0.289   0.282   0.283   0.282   0.281   0.290   0.277   0.278   0.285   0.283   0.280   0.283   0.276   0.274   0.281   0.275   0.273   0.275   0.273   0.272   0.274   0.284   0.262   0.268   0.279   0.279   0.281   0.285   0.287   0.289   0.291   0.287   0.289   0.286   0.294   0.298   0.286   0.292   0.296   0.307   0.303   0.297   0.298   0.281   0.290   0.291   0.291   0.285   0.287   0.291   0.298   0.296   0.289   0.284   0.293   0.292   0.288   0.291   0.302   0.305   0.297   0.296   0.290   0.285   0.282   0.286   0.282   0.286   0.287   0.290   0.284   0.297   0.287   0.279   0.293   0.284   0.270   0.280   0.280   0.274   0.283   0.277   0.277   0.275   0.283   0.292   0.295   0.291   0.297   0.288   0.288   0.290   0.287   0.281   0.293   0.285   0.282   0.292   0.294   0.302   0.291   0.285   0.283   0.289   0.280   0.285   0.297   0.287   0.288   0.299   0.293   0.288   0.288   0.285   0.288   0.292   0.293   0.292   0.287   0.292   0.292   0.286   0.293   0.288   0.282   0.268   0.269   0.270   0.266   0.274   0.283   0.282   0.289   0.282   0.284   0.281   0.290   0.294   0.285   0.285   0.288   0.294   0.293   0.302   0.288   0.292   0.292   0.294   0.293   0.297   0.296   0.293   0.287   0.296   0.283   0.298   0.277   0.289   0.283   0.281
    28.90    0.278   0.276   0.279   0.285   0.278   0.283   0.286   0.281   0.276   0.289   0.299   0.294   0.295   0.289   0.287   0.276   0.280   0.280   0.286   0.282   0.278   0.274   0.279   0.277   0.276   0.285   0.288   0.295   0.295   0.300   0.290   0.289   0.280   0.284   0.295   0.285   0.289   0.282   0.283   0.280   0.282   0.288   0.281   0.281   0.277   0.277   0.279   0.281   0.274   0.279   0.274   0.272   0.278   0.274   0.283   0.272   0.279   0.281   0.278   0.279   0.293   0.282   0.287   0.300   0.300   0.289   0.292   0.286   0.297   0.280   0.295   0.302   0.297   0.300   0.299   0.297   0.293   0.293   0.297   0.284   0.296   0.296   0.292   0.296   0.293   0.288   0.279   0.290   0.290   0.289   0.283   0.293   0.298   0.299   0.295   0.295   0.281   0.282   0.281   0.283   0.284   0.287   0.287   0.291   0.294   0.286   0.292   0.302   0.287   0.283   0.278   0.281   0.284   0.297   0.290   0.287   0.289   0.287   0.288   0.295   0.290   0.303   0.289   0.281   0.287   0.287   0.276   0.290   0.290   0.282   0.282   0.293   0.300   0.287   0.291   0.288   0.290   0.282   0.280   0.287   0.287   0.291   0.298   0.293   0.289   0.287   0.287   0.289   0.292   0.296   0.293   0.291   0.292   0.294   0.298   0.293   0.298   0.296   0.288   0.283   0.277   0.277   0.281   0.278   0.277   0.287   0.296   0.284   0.286   0.287   0.284   0.280   0.289   0.283   0.287   0.294   0.285   0.300   0.295   0.297   0.299   0.297   0.301   0.300   0.286   0.290   0.279   0.286   0.290   0.287   0.283   0.281   0.274
    19.60    0.284   0.275   0.280   0.286   0.283   0.278   0.277   0.284   0.277   0.277   0.287   0.286   0.283   0.285   0.285   0.281   0.280   0.289   0.286   0.282   0.282   0.277   0.274   0.292   0.283   0.290   0.302   0.300   0.301   0.291   0.285   0.284   0.285   0.283   0.285   0.293   0.293   0.290   0.283   0.275   0.275   0.278   0.277   0.275   0.270   0.271   0.280   0.292   0.289   0.285   0.276   0.276   0.274   0.283   0.274   0.280   0.281   0.279   0.286   0.291   0.291   0.291   0.291   0.292   0.300   0.294   0.296   0.286   0.294   0.295   0.309   0.305   0.304   0.308   0.306   0.308   0.298   0.288   0.299   0.292   0.291   0.288   0.297   0.294   0.298   0.294   0.292   0.293   0.289   0.278   0.278   0.285   0.289   0.282   0.293   0.286   0.290   0.287   0.281   0.285   0.284   0.290   0.288   0.292   0.286   0.290   0.291   0.306   0.295   0.297   0.283   0.276   0.281   0.287   0.297   0.289   0.281   0.276   0.282   0.283   0.295   0.303   0.291   0.292   0.288   0.293   0.282   0.281   0.280   0.281   0.273   0.277   0.289   0.290   0.281   0.288   0.284   0.294   0.291   0.281   0.285   0.288   0.286   0.290   0.296   0.294   0.277   0.296   0.290   0.292   0.294   0.295   0.298   0.305   0.297   0.287   0.299   0.286   0.299   0.296   0.280   0.286   0.281   0.286   0.292   0.287   0.289   0.285   0.284   0.283   0.284   0.273   0.280   0.277   0.283   0.287   0.294   0.287   0.295   0.287   0.291   0.298   0.304   0.296   0.284   0.285   0.278   0.287   0.284   0.288   0.286   0.273   0.269
    10.30    0.269   0.281   0.289   0.286   0.279   0.281   0.276   0.283   0.273   0.278   0.286   0.293   0.289   0.282   0.278   0.276   0.277   0.275   0.276   0.284   0.293   0.297   0.288   0.287   0.287   0.288   0.295   0.309   0.299   0.280   0.281   0.272   0.272   0.275   0.285   0.269   0.281   0.289   0.280   0.277   0.283   0.283   0.275   0.274   0.274   0.284   0.282   0.274   0.280   0.273   0.285   0.281   0.272   0.272   0.277   0.277   0.280   0.280   0.285   0.286   0.288   0.293   0.281   0.296   0.303   0.303   0.301   0.292   0.284   0.297   0.306   0.291   0.309   0.302   0.295   0.300   0.305   0.296   0.285   0.284   0.292   0.290   0.290   0.293   0.297   0.292   0.297   0.295   0.287   0.285   0.280   0.276   0.277   0.282   0.288   0.291   0.286   0.290   0.289   0.291   0.292   0.294   0.285   0.280   0.292   0.298   0.298   0.299   0.299   0.296   0.283   0.280   0.283   0.280   0.289   0.283   0.280   0.277   0.285   0.284   0.294   0.297   0.288   0.286   0.281   0.285   0.283   0.277   0.282   0.289   0.270   0.278   0.286   0.285   0.294   0.292   0.280   0.282   0.292   0.285   0.294   0.276   0.286   0.286   0.287   0.283   0.278   0.282   0.289   0.294   0.299   0.303   0.296   0.297   0.293   0.296   0.294   0.297   0.298   0.302   0.293   0.300   0.281   0.281   0.285   0.285   0.285   0.281   0.284   0.282   0.280   0.275   0.280   0.284   0.289   0.287   0.282   0.292   0.289   0.292   0.293   0.296   0.293   0.288   0.292   0.283   0.291   0.289   0.285   0.291   0.280   0.276   0.280
     1.00    0.284   0.292   0.292   0.299   0.291   0.282   0.279   0.282   0.288   0.287   0.292   0.288   0.280   0.273   0.279   0.274   0.280   0.279   0.282   0.284   0.294   0.289   0.290   0.288   0.286   0.286   0.285   0.293   0.293   0.285   0.271   0.273   0.271   0.274   0.282   0.274   0.275   0.280   0.281   0.280   0.278   0.279   0.282   0.279   0.288   0.291   0.295   0.276   0.267   0.278   0.271   0.278   0.285   0.284   0.274   0.271   0.268   0.274   0.289   0.288   0.288   0.293   0.288   0.289   0.294   0.295   0.301   0.294   0.294   0.290   0.298   0.298   0.297   0.299   0.303   0.308   0.309   0.297   0.288   0.281   0.281   0.286   0.287   0.284   0.287   0.293   0.294   0.293   0.293   0.289   0.282   0.277   0.282   0.277   0.281   0.288   0.284   0.287   0.289   0.295   0.291   0.290   0.291   0.284   0.294   0.298   0.301   0.301   0.292   0.298   0.287   0.287   0.284   0.281   0.289   0.278   0.284   0.284   0.292   0.285   0.281   0.287   0.278   0.280   0.295   0.286   0.280   0.272   0.275   0.282   0.274   0.275   0.283   0.288   0.296   0.292   0.282   0.287   0.292   0.288   0.291   0.292   0.294   0.296   0.287   0.288   0.282   0.273   0.281   0.276   0.287   0.288   0.290   0.296   0.303   0.301   0.294   0.293   0.294   0.296   0.291   0.306   0.290   0.295   0.294   0.284   0.283   0.284   0.283   0.285   0.281   0.276   0.290   0.290   0.286   0.291   0.284   0.285   0.299   0.278   0.290   0.284   0.282   0.290   0.293   0.283   0.288   0.292   0.289   0.282   0.281   0.281   0.287

   Mean standard deviation across all grid points:
      u component:    0.583 m/s
      v component:    0.457 m/s
      w component:    0.285 m/s


U-component (X) statistics from the interpolated hub point:

   Mean =   9.7063 m/s
   TI   =   6.1251 %


Processing complete.  2.14797E+05 CPU seconds used.
