
This summary file was generated by TurbSim (from OpenFAST-v3.5.3) on 20-Apr-2025 at 08:46:35.


Runtime Options:

1333634118  Random seed #1
    RANLUX  Type of random number generator
         F  Output binary HH turbulence parameters?
         F  Output formatted turbulence parameters?
         F  Output AeroDyn HH files?
         T  Output AeroDyn FF files?
         F  Output BLADED FF files?
         F  Output tower data?
         F  Output HAWC FF files?
         F  Output formatted FF files?
         T  Output coherent turbulence time step file?
 0 -  NONE  IEC turbulence models scaled to exact specified standard deviation


Turbine/Model Specifications:

        37  Vertical grid-point matrix dimension
        35  Horizontal grid-point matrix dimension
     0.250  Time step [seconds]
   900.000  Analysis time [seconds]
   900.000  Usable output time [seconds]
    89.350  Hub height [m]
   167.400  Grid height [m]
   158.100  Grid width [m]
     0.000  Vertical flow angle [degrees]
     0.000  Horizontal flow angle [degrees]


Meteorological Boundary Conditions:

    TIMESR  User-input time series spectral model
       N/A  IEC standard
       N/A  IEC turbulence characteristic
       N/A  IEC turbulence type
       N/A  IEC Extreme Turbulence Model (ETM) "c" parameter [m/s]
       PL   Wind profile type
    90.000  Reference height [m]
    10.000  Reference wind speed [m/s]
       N/A  Jet height [m]
     0.120  Power law exponent
     0.030  Surface roughness length [m]


Non-IEC Meteorological Boundary Conditions:

    45.000  Site latitude [degrees]
     0.050  Gradient Richardson number
     0.480  Friction or shear velocity [m/s]
       N/A  Mixing layer depth [m]
       N/A  Mean hub u'w' Reynolds stress
       N/A  Mean hub u'v' Reynolds stress
       N/A  Mean hub v'w' Reynolds stress


Spatial Coherence Models:

       IEC  u-component coherence model
       IEC  v-component coherence model
       IEC  w-component coherence model
(   12.000, 0.353E-03)  u-component coherence parameters
(   12.000, 0.353E-03)  v-component coherence parameters
(   12.000, 0.353E-03)  w-component coherence parameters
       N/A  Coherence exponent


Coherent Turbulence Scaling Parameters:

.\EventData
            Name of the path containing the coherent turbulence data files
       dns  Type of coherent turbulence data files
     1.000  Disturbance scale (ratio of wave height to rotor diameter)
     0.500  Fractional location of tower centerline from right
     0.500  Fractional location of hub height from the bottom of the dataset
    30.000  Minimum start time for coherent structures [seconds]


Profiles from User-Defined Time-Series Input:

  Height   Wind Speed   Horizontal Angle   Vertical Angle
   (m)        (m/s)          (deg)              (deg)    
  ------   ----------   ----------------   --------------
   94.00      10.00          -0.63               -0.00


You have requested that the following file(s) be generated:

   /kfs3/scratch/agupta/Projects/RL_Incubator/FinalRuns_Veer/Seed4/./FFSim_Seed4/Cond00_v10.0_PL0.12_TI3.0/Case2_wdirp04/Seed_4/TurbSim/HighT10.bts (AeroDyn/TurbSim full-field wind file)


Turbulence Simulation Scaling Parameter Summary:

   Turbulence model used                            =  User-input time series
   Gradient Richardson number                       =    0.050
   Monin-Obukhov (M-O) z/L parameter                =    0.067
   Monin-Obukhov (M-O) length scale                 = 1340.250 m
   Mean wind speed at hub height                    =    9.991 m/s

   Wind profile type                                =  Power law
   Power law exponent                               =    0.120
   Mean shear across rotor disk                     =    0.019 (m/s)/m
   Assumed rotor diameter                           =  158.100 m
   Surface roughness length                         =    0.030 m

   Nyquist frequency of turbulent wind field        =    2.000 Hz

   Number of time steps in the FFT                  =     3600
   Number of time steps output                      =     3600
   Number of points simulated                       =     1296


Mean Flow Angles:

   Vertical   =   0.0 degrees
   Horizontal =   0.0 degrees

Mean Wind Speed Profile:

   Height    Wind Speed   Horizontal Angle  Vertical Angle  U-comp (X)   V-comp (Y)   W-comp (Z)
     (m)        (m/s)         (degrees)       (degrees)       (m/s)        (m/s)        (m/s)   
   ------    ----------   ----------------  --------------  ----------   ----------   ----------
    168.4       10.78            0.00            0.00         10.78         0.00         0.00
    163.7       10.74            0.00            0.00         10.74         0.00         0.00
    159.1       10.71            0.00            0.00         10.71         0.00         0.00
    154.4       10.67            0.00            0.00         10.67         0.00         0.00
    149.8       10.63            0.00            0.00         10.63         0.00         0.00
    145.1       10.59            0.00            0.00         10.59         0.00         0.00
    140.5       10.55            0.00            0.00         10.55         0.00         0.00
    135.8       10.51            0.00            0.00         10.51         0.00         0.00
    131.2       10.46            0.00            0.00         10.46         0.00         0.00
    126.5       10.42            0.00            0.00         10.42         0.00         0.00
    121.9       10.37            0.00            0.00         10.37         0.00         0.00
    117.2       10.32            0.00            0.00         10.32         0.00         0.00
    112.6       10.27            0.00            0.00         10.27         0.00         0.00
    107.9       10.22            0.00            0.00         10.22         0.00         0.00
    103.3       10.17            0.00            0.00         10.17         0.00         0.00
     98.6       10.11            0.00            0.00         10.11         0.00         0.00
     94.0       10.05            0.00            0.00         10.05         0.00         0.00
     89.3        9.99            0.00            0.00          9.99         0.00         0.00
     84.7        9.93            0.00            0.00          9.93         0.00         0.00
     80.0        9.86            0.00            0.00          9.86         0.00         0.00
     75.4        9.79            0.00            0.00          9.79         0.00         0.00
     70.7        9.72            0.00            0.00          9.72         0.00         0.00
     66.1        9.64            0.00            0.00          9.64         0.00         0.00
     61.4        9.55            0.00            0.00          9.55         0.00         0.00
     56.8        9.46            0.00            0.00          9.46         0.00         0.00
     52.1        9.37            0.00            0.00          9.37         0.00         0.00
     47.5        9.26            0.00            0.00          9.26         0.00         0.00
     42.8        9.15            0.00            0.00          9.15         0.00         0.00
     38.2        9.02            0.00            0.00          9.02         0.00         0.00
     33.5        8.88            0.00            0.00          8.88         0.00         0.00
     28.9        8.73            0.00            0.00          8.73         0.00         0.00
     24.2        8.54            0.00            0.00          8.54         0.00         0.00
     19.6        8.33            0.00            0.00          8.33         0.00         0.00
     14.9        8.06            0.00            0.00          8.06         0.00         0.00
     10.3        7.71            0.00            0.00          7.71         0.00         0.00
      5.6        7.17            0.00            0.00          7.17         0.00         0.00
      1.0        5.83            0.00            0.00          5.83         0.00         0.00


Harvested Random Seeds after Generation of the Random Numbers:

     65026800 K 1
            0 K 2


Hub-Height Simulated Turbulence Statistical Summary:

   Type of Wind        Min (m/s)   Mean (m/s)    Max (m/s)  Sigma (m/s)       TI (%)
   ----------------    ---------   ----------    ---------  -----------       ------
   Longitudinal (u)         9.22         9.99        10.93        0.309        3.091
   Lateral (v)             -0.82         0.00         0.71        0.211        2.108
   Vertical (w)            -0.48         0.00         0.42        0.138        1.376
   U component              9.22         9.99        10.93        0.309        3.091
   V component             -0.82         0.00         0.71        0.211        2.108
   W component             -0.48         0.00         0.42        0.138        1.376
   Horizontal (U&V)         9.23         9.99        10.93        0.309        3.092
   Total                    9.23         9.99        10.93        0.309        3.092

                       Min Reynolds     Mean Reynolds    Max Reynolds    Correlation
   Product             Stress (m/s)^2   Stress (m/s)^2   Stress (m/s)^2  Coefficient
   ----------------    --------------   --------------   --------------  -----------
   u'w'                     -0.293             0.004             0.254         0.091
   u'v'                     -0.308             0.008             0.414         0.120
   v'w'                     -0.142             0.001             0.224         0.045


   Friction Velocity (Ustar)  =      0.062 m/s
   Maximum Instantaneous TKE  =      0.455 (m/s)^2
   Maximum Instantaneous CTKE =      0.211 (m/s)^2


Grid Point Variance Summary:

   Y-coord  -79.05  -74.40  -69.75  -65.10  -60.45  -55.80  -51.15  -46.50  -41.85  -37.20  -32.55  -27.90  -23.25  -18.60  -13.95   -9.30   -4.65    0.00    4.65    9.30   13.95   18.60   23.25   27.90   32.55   37.20   41.85   46.50   51.15   55.80   60.45   65.10   69.75   74.40   79.05

   Height   Standard deviation at grid points for the u component:
   168.40    0.281   0.285   0.279   0.270   0.278   0.287   0.272   0.271   0.268   0.273   0.290   0.281   0.311   0.324   0.324   0.317   0.292   0.280   0.257   0.234   0.231   0.235   0.236   0.231   0.223   0.218   0.224   0.228   0.237   0.228   0.234   0.252   0.267   0.247   0.235
   163.75    0.305   0.285   0.293   0.267   0.287   0.281   0.282   0.274   0.276   0.270   0.290   0.289   0.319   0.317   0.318   0.318   0.298   0.266   0.249   0.224   0.248   0.239   0.227   0.213   0.218   0.224   0.219   0.222   0.251   0.239   0.247   0.264   0.246   0.250   0.256
   159.10    0.300   0.293   0.277   0.272   0.288   0.290   0.290   0.266   0.273   0.295   0.291   0.289   0.309   0.321   0.314   0.311   0.289   0.278   0.260   0.239   0.237   0.237   0.229   0.216   0.222   0.227   0.235   0.225   0.245   0.263   0.233   0.258   0.249   0.258   0.247
   154.45    0.294   0.284   0.282   0.269   0.280   0.265   0.265   0.276   0.265   0.289   0.295   0.287   0.305   0.313   0.311   0.293   0.311   0.312   0.279   0.257   0.239   0.217   0.214   0.230   0.229   0.226   0.235   0.232   0.254   0.260   0.258   0.250   0.258   0.263   0.250
   149.80    0.294   0.284   0.272   0.285   0.278   0.284   0.287   0.282   0.278   0.289   0.285   0.281   0.300   0.298   0.288   0.297   0.298   0.300   0.272   0.266   0.238   0.212   0.209   0.214   0.230   0.218   0.226   0.228   0.225   0.246   0.256   0.249   0.250   0.269   0.268
   145.15    0.308   0.281   0.264   0.272   0.274   0.286   0.281   0.281   0.264   0.284   0.274   0.288   0.290   0.306   0.320   0.302   0.282   0.293   0.280   0.260   0.248   0.232   0.224   0.231   0.225   0.228   0.238   0.231   0.237   0.233   0.239   0.249   0.244   0.248   0.252
   140.50    0.274   0.269   0.277   0.276   0.285   0.284   0.267   0.273   0.266   0.271   0.278   0.273   0.272   0.284   0.308   0.299   0.284   0.294   0.276   0.271   0.254   0.244   0.220   0.225   0.227   0.231   0.222   0.223   0.225   0.237   0.246   0.251   0.245   0.230   0.240
   135.85    0.294   0.277   0.281   0.292   0.277   0.266   0.260   0.259   0.275   0.278   0.265   0.253   0.248   0.275   0.282   0.284   0.279   0.275   0.277   0.266   0.258   0.246   0.235   0.237   0.222   0.222   0.228   0.227   0.220   0.236   0.257   0.256   0.251   0.228   0.238
   131.20    0.288   0.291   0.269   0.276   0.278   0.263   0.248   0.268   0.281   0.278   0.256   0.244   0.250   0.266   0.276   0.291   0.292   0.283   0.276   0.265   0.256   0.233   0.240   0.240   0.245   0.243   0.251   0.249   0.241   0.250   0.262   0.262   0.262   0.242   0.249
   126.55    0.272   0.257   0.285   0.269   0.276   0.261   0.264   0.279   0.262   0.263   0.248   0.241   0.238   0.267   0.288   0.292   0.306   0.283   0.278   0.264   0.253   0.251   0.248   0.274   0.264   0.255   0.282   0.277   0.265   0.247   0.243   0.242   0.256   0.252   0.245
   121.90    0.249   0.242   0.265   0.281   0.280   0.284   0.280   0.288   0.271   0.266   0.257   0.264   0.261   0.274   0.271   0.276   0.283   0.285   0.270   0.255   0.257   0.265   0.268   0.285   0.273   0.260   0.270   0.256   0.254   0.232   0.244   0.244   0.241   0.232   0.257
   117.25    0.246   0.256   0.257   0.281   0.295   0.282   0.279   0.268   0.268   0.273   0.293   0.285   0.274   0.260   0.280   0.279   0.274   0.280   0.279   0.250   0.257   0.257   0.263   0.279   0.268   0.287   0.265   0.254   0.252   0.236   0.244   0.240   0.247   0.244   0.244
   112.60    0.248   0.259   0.271   0.271   0.276   0.284   0.274   0.265   0.273   0.303   0.321   0.295   0.293   0.281   0.271   0.290   0.295   0.287   0.261   0.256   0.260   0.247   0.252   0.267   0.269   0.267   0.267   0.250   0.248   0.253   0.269   0.268   0.257   0.257   0.245
   107.95    0.233   0.247   0.253   0.277   0.285   0.282   0.263   0.254   0.267   0.291   0.297   0.291   0.308   0.306   0.295   0.312   0.308   0.305   0.276   0.270   0.261   0.282   0.292   0.262   0.265   0.253   0.255   0.249   0.260   0.265   0.269   0.284   0.281   0.277   0.279
   103.30    0.257   0.266   0.256   0.272   0.277   0.281   0.263   0.254   0.258   0.272   0.260   0.271   0.305   0.291   0.291   0.295   0.317   0.314   0.269   0.267   0.263   0.272   0.266   0.276   0.268   0.253   0.257   0.253   0.272   0.269   0.288   0.290   0.275   0.273   0.282
    98.65    0.275   0.274   0.273   0.260   0.289   0.280   0.261   0.252   0.251   0.258   0.263   0.286   0.273   0.281   0.316   0.310   0.328   0.312   0.276   0.265   0.263   0.258   0.265   0.269   0.271   0.270   0.266   0.285   0.285   0.273   0.282   0.304   0.300   0.273   0.292
    94.00    0.293   0.277   0.275   0.277   0.289   0.285   0.283   0.273   0.270   0.258   0.267   0.289   0.293   0.300   0.310   0.330   0.326   0.319   0.290   0.266   0.258   0.264   0.278   0.295   0.272   0.293   0.274   0.282   0.283   0.272   0.271   0.280   0.294   0.278   0.275
    89.35    0.284   0.285   0.286   0.278   0.279   0.286   0.275   0.258   0.264   0.280   0.294   0.288   0.292   0.290   0.300   0.295   0.293   0.309   0.296   0.282   0.268   0.266   0.261   0.293   0.281   0.271   0.279   0.269   0.275   0.269   0.261   0.274   0.273   0.268   0.271
    84.70    0.282   0.283   0.290   0.284   0.306   0.289   0.272   0.262   0.280   0.302   0.303   0.271   0.278   0.283   0.304   0.283   0.290   0.301   0.286   0.288   0.254   0.266   0.268   0.281   0.264   0.269   0.292   0.277   0.263   0.246   0.267   0.272   0.272   0.263   0.265
    80.05    0.285   0.278   0.274   0.280   0.302   0.292   0.275   0.274   0.288   0.310   0.301   0.286   0.288   0.293   0.293   0.299   0.267   0.276   0.280   0.263   0.258   0.267   0.286   0.296   0.270   0.282   0.281   0.265   0.264   0.248   0.252   0.275   0.272   0.268   0.290
    75.40    0.299   0.277   0.265   0.268   0.279   0.278   0.281   0.277   0.281   0.306   0.305   0.281   0.295   0.326   0.323   0.309   0.287   0.282   0.261   0.270   0.268   0.273   0.286   0.275   0.273   0.265   0.272   0.272   0.268   0.251   0.256   0.276   0.292   0.278   0.282
    70.75    0.286   0.265   0.282   0.294   0.301   0.296   0.265   0.274   0.279   0.301   0.297   0.284   0.300   0.331   0.344   0.296   0.290   0.291   0.278   0.268   0.268   0.272   0.282   0.288   0.281   0.267   0.273   0.272   0.256   0.260   0.256   0.268   0.261   0.267   0.282
    66.10    0.279   0.277   0.294   0.301   0.308   0.297   0.280   0.265   0.279   0.289   0.296   0.293   0.294   0.315   0.330   0.326   0.308   0.294   0.296   0.287   0.275   0.259   0.269   0.272   0.274   0.278   0.254   0.268   0.260   0.255   0.252   0.252   0.244   0.241   0.257
    61.45    0.308   0.298   0.287   0.304   0.305   0.290   0.291   0.276   0.267   0.304   0.307   0.300   0.304   0.322   0.340   0.336   0.333   0.331   0.306   0.302   0.293   0.287   0.275   0.270   0.274   0.282   0.268   0.270   0.253   0.262   0.264   0.245   0.234   0.227   0.259
    56.80    0.302   0.294   0.306   0.299   0.324   0.313   0.283   0.285   0.291   0.308   0.322   0.330   0.322   0.346   0.361   0.355   0.343   0.309   0.309   0.300   0.288   0.295   0.288   0.297   0.279   0.301   0.285   0.275   0.263   0.263   0.253   0.272   0.258   0.261   0.273
    52.15    0.297   0.293   0.316   0.322   0.332   0.312   0.278   0.292   0.306   0.295   0.323   0.348   0.335   0.359   0.361   0.337   0.339   0.329   0.309   0.318   0.312   0.303   0.282   0.300   0.292   0.307   0.283   0.273   0.266   0.262   0.259   0.288   0.265   0.272   0.284
    47.50    0.288   0.308   0.319   0.332   0.342   0.332   0.311   0.327   0.311   0.315   0.327   0.349   0.356   0.357   0.366   0.335   0.340   0.313   0.300   0.316   0.315   0.299   0.280   0.310   0.292   0.306   0.280   0.265   0.284   0.279   0.287   0.297   0.285   0.272   0.269
    42.85    0.294   0.319   0.320   0.333   0.327   0.320   0.321   0.312   0.328   0.317   0.337   0.358   0.360   0.368   0.356   0.334   0.322   0.304   0.278   0.290   0.306   0.301   0.319   0.320   0.287   0.299   0.287   0.264   0.289   0.298   0.263   0.281   0.284   0.296   0.287
    38.20    0.309   0.319   0.321   0.320   0.331   0.318   0.330   0.332   0.329   0.322   0.338   0.362   0.355   0.355   0.340   0.334   0.319   0.292   0.287   0.298   0.299   0.292   0.294   0.315   0.282   0.295   0.304   0.296   0.295   0.281   0.293   0.273   0.297   0.314   0.313
    33.55    0.303   0.319   0.321   0.330   0.329   0.296   0.321   0.336   0.334   0.319   0.352   0.356   0.351   0.361   0.324   0.315   0.303   0.283   0.296   0.300   0.311   0.314   0.294   0.296   0.302   0.302   0.290   0.290   0.311   0.296   0.310   0.304   0.327   0.339   0.310
    28.90    0.292   0.294   0.297   0.301   0.293   0.304   0.313   0.322   0.331   0.316   0.344   0.338   0.354   0.347   0.321   0.312   0.289   0.281   0.293   0.314   0.316   0.325   0.320   0.325   0.330   0.299   0.298   0.318   0.318   0.329   0.321   0.327   0.329   0.320   0.334
    24.25    0.290   0.288   0.304   0.304   0.298   0.306   0.316   0.300   0.316   0.328   0.336   0.326   0.339   0.343   0.327   0.323   0.279   0.278   0.259   0.303   0.324   0.329   0.346   0.319   0.325   0.311   0.311   0.312   0.342   0.352   0.336   0.341   0.346   0.346   0.329
    19.60    0.274   0.294   0.278   0.297   0.283   0.296   0.316   0.323   0.323   0.331   0.332   0.335   0.333   0.339   0.331   0.301   0.292   0.282   0.302   0.299   0.323   0.336   0.332   0.329   0.321   0.321   0.327   0.337   0.347   0.347   0.350   0.362   0.356   0.317   0.329
    14.95    0.309   0.291   0.274   0.273   0.277   0.281   0.308   0.310   0.312   0.311   0.324   0.328   0.321   0.320   0.321   0.314   0.298   0.293   0.285   0.294   0.315   0.342   0.343   0.335   0.325   0.325   0.332   0.348   0.341   0.351   0.336   0.356   0.348   0.325   0.316
    10.30    0.298   0.285   0.289   0.281   0.291   0.272   0.295   0.313   0.317   0.318   0.323   0.308   0.323   0.311   0.318   0.315   0.293   0.286   0.301   0.306   0.317   0.331   0.333   0.300   0.301   0.298   0.324   0.337   0.342   0.358   0.338   0.332   0.350   0.328   0.318
     5.65    0.284   0.278   0.278   0.292   0.281   0.289   0.287   0.291   0.308   0.301   0.307   0.305   0.311   0.294   0.311   0.290   0.283   0.307   0.302   0.304   0.311   0.313   0.312   0.285   0.271   0.267   0.306   0.327   0.348   0.358   0.324   0.330   0.328   0.336   0.313
     1.00    0.289   0.298   0.288   0.286   0.277   0.277   0.277   0.266   0.274   0.294   0.304   0.300   0.299   0.306   0.311   0.297   0.283   0.292   0.304   0.275   0.294   0.303   0.291   0.287   0.271   0.278   0.299   0.298   0.326   0.343   0.331   0.320   0.322   0.331   0.317

   Height   Standard deviation at grid points for the v component:
   168.40    0.224   0.235   0.224   0.236   0.236   0.224   0.220   0.217   0.217   0.220   0.226   0.223   0.227   0.227   0.227   0.226   0.227   0.233   0.235   0.227   0.220   0.224   0.223   0.213   0.214   0.221   0.219   0.226   0.218   0.228   0.223   0.226   0.219   0.222   0.218
   163.75    0.236   0.233   0.229   0.223   0.221   0.225   0.223   0.221   0.215   0.225   0.221   0.220   0.234   0.226   0.228   0.226   0.226   0.227   0.236   0.228   0.222   0.220   0.223   0.226   0.224   0.221   0.225   0.228   0.219   0.219   0.229   0.227   0.224   0.226   0.221
   159.10    0.229   0.239   0.237   0.224   0.217   0.226   0.219   0.227   0.221   0.222   0.229   0.225   0.225   0.233   0.231   0.226   0.217   0.243   0.244   0.240   0.225   0.229   0.218   0.218   0.222   0.223   0.221   0.220   0.209   0.211   0.222   0.234   0.235   0.227   0.225
   154.45    0.234   0.229   0.230   0.225   0.223   0.217   0.225   0.218   0.217   0.218   0.220   0.222   0.227   0.227   0.217   0.234   0.233   0.250   0.250   0.249   0.241   0.235   0.230   0.215   0.215   0.214   0.206   0.204   0.215   0.216   0.219   0.226   0.230   0.221   0.224
   149.80    0.229   0.237   0.238   0.231   0.231   0.226   0.224   0.223   0.232   0.227   0.220   0.229   0.232   0.211   0.213   0.221   0.241   0.256   0.250   0.241   0.240   0.250   0.230   0.225   0.220   0.214   0.210   0.210   0.207   0.212   0.209   0.218   0.219   0.218   0.233
   145.15    0.244   0.238   0.243   0.226   0.219   0.215   0.216   0.212   0.223   0.232   0.232   0.236   0.225   0.215   0.221   0.226   0.246   0.246   0.246   0.240   0.254   0.249   0.234   0.227   0.217   0.209   0.209   0.204   0.194   0.206   0.210   0.207   0.218   0.214   0.216
   140.50    0.225   0.220   0.227   0.227   0.224   0.221   0.211   0.201   0.211   0.225   0.231   0.223   0.227   0.221   0.222   0.230   0.245   0.238   0.248   0.234   0.243   0.248   0.241   0.215   0.210   0.207   0.211   0.207   0.215   0.204   0.197   0.207   0.215   0.210   0.212
   135.85    0.230   0.222   0.221   0.223   0.230   0.219   0.215   0.218   0.224   0.215   0.226   0.226   0.228   0.224   0.229   0.230   0.238   0.233   0.236   0.234   0.235   0.235   0.236   0.225   0.218   0.205   0.203   0.215   0.215   0.216   0.212   0.212   0.213   0.210   0.215
   131.20    0.221   0.226   0.224   0.227   0.220   0.214   0.228   0.220   0.228   0.227   0.228   0.221   0.230   0.237   0.239   0.231   0.232   0.229   0.227   0.237   0.225   0.232   0.233   0.224   0.212   0.211   0.206   0.224   0.198   0.213   0.214   0.210   0.220   0.218   0.219
   126.55    0.214   0.218   0.230   0.237   0.224   0.216   0.230   0.232   0.237   0.221   0.234   0.229   0.225   0.236   0.239   0.241   0.237   0.230   0.221   0.224   0.223   0.223   0.232   0.222   0.222   0.218   0.218   0.221   0.213   0.210   0.210   0.217   0.216   0.220   0.214
   121.90    0.219   0.232   0.220   0.238   0.241   0.233   0.235   0.228   0.231   0.234   0.241   0.232   0.233   0.241   0.231   0.239   0.239   0.236   0.235   0.225   0.231   0.227   0.224   0.222   0.212   0.223   0.216   0.216   0.203   0.208   0.211   0.213   0.216   0.223   0.228
   117.25    0.224   0.236   0.249   0.259   0.242   0.244   0.236   0.233   0.229   0.228   0.229   0.232   0.227   0.237   0.241   0.235   0.240   0.237   0.227   0.222   0.219   0.220   0.219   0.230   0.215   0.230   0.222   0.221   0.211   0.209   0.210   0.211   0.210   0.219   0.223
   112.60    0.233   0.234   0.253   0.252   0.253   0.251   0.245   0.249   0.247   0.235   0.237   0.237   0.234   0.231   0.233   0.230   0.226   0.236   0.226   0.228   0.218   0.211   0.219   0.222   0.231   0.234   0.226   0.221   0.227   0.215   0.214   0.214   0.208   0.220   0.216
   107.95    0.239   0.233   0.252   0.250   0.243   0.254   0.257   0.261   0.250   0.223   0.231   0.227   0.231   0.225   0.226   0.232   0.231   0.231   0.232   0.227   0.221   0.216   0.231   0.234   0.221   0.233   0.227   0.224   0.224   0.218   0.209   0.209   0.209   0.214   0.222
   103.30    0.232   0.249   0.254   0.260   0.250   0.262   0.254   0.241   0.241   0.242   0.231   0.230   0.232   0.221   0.225   0.233   0.228   0.219   0.229   0.223   0.215   0.219   0.232   0.245   0.246   0.231   0.232   0.222   0.217   0.222   0.226   0.211   0.203   0.208   0.218
    98.65    0.239   0.245   0.252   0.269   0.259   0.247   0.250   0.241   0.235   0.239   0.228   0.224   0.232   0.231   0.228   0.222   0.228   0.229   0.231   0.223   0.230   0.232   0.228   0.251   0.242   0.231   0.226   0.233   0.218   0.225   0.219   0.224   0.210   0.211   0.218
    94.00    0.237   0.247   0.263   0.255   0.249   0.247   0.227   0.236   0.234   0.230   0.225   0.219   0.230   0.224   0.234   0.237   0.227   0.219   0.229   0.232   0.225   0.242   0.248   0.242   0.235   0.243   0.237   0.230   0.231   0.231   0.235   0.230   0.222   0.219   0.210
    89.35    0.250   0.249   0.257   0.258   0.236   0.235   0.242   0.240   0.234   0.221   0.213   0.207   0.216   0.230   0.239   0.237   0.221   0.211   0.210   0.223   0.227   0.240   0.242   0.253   0.243   0.238   0.234   0.230   0.228   0.238   0.230   0.225   0.218   0.217   0.208
    84.70    0.255   0.249   0.255   0.253   0.235   0.226   0.232   0.236   0.218   0.228   0.219   0.209   0.210   0.228   0.232   0.223   0.210   0.206   0.203   0.222   0.228   0.242   0.236   0.239   0.236   0.236   0.232   0.229   0.218   0.223   0.224   0.218   0.215   0.221   0.211
    80.05    0.249   0.258   0.247   0.256   0.237   0.233   0.237   0.222   0.226   0.221   0.222   0.218   0.218   0.222   0.217   0.215   0.207   0.201   0.214   0.216   0.227   0.226   0.237   0.234   0.225   0.220   0.218   0.220   0.216   0.205   0.207   0.217   0.217   0.222   0.223
    75.40    0.257   0.253   0.254   0.242   0.238   0.233   0.233   0.227   0.220   0.213   0.210   0.211   0.216   0.226   0.207   0.208   0.216   0.199   0.206   0.222   0.227   0.225   0.223   0.225   0.211   0.209   0.205   0.217   0.205   0.219   0.218   0.218   0.206   0.220   0.218
    70.75    0.260   0.255   0.247   0.245   0.220   0.232   0.231   0.224   0.218   0.218   0.214   0.207   0.204   0.218   0.203   0.203   0.207   0.199   0.205   0.219   0.231   0.226   0.223   0.217   0.216   0.208   0.208   0.230   0.225   0.232   0.223   0.210   0.207   0.209   0.219
    66.10    0.273   0.265   0.252   0.255   0.240   0.236   0.232   0.229   0.230   0.226   0.217   0.213   0.214   0.216   0.200   0.199   0.201   0.200   0.214   0.225   0.219   0.218   0.223   0.222   0.211   0.211   0.204   0.216   0.224   0.227   0.229   0.225   0.205   0.214   0.206
    61.45    0.271   0.265   0.257   0.245   0.236   0.234   0.239   0.223   0.219   0.229   0.225   0.220   0.224   0.230   0.202   0.207   0.201   0.203   0.208   0.220   0.220   0.223   0.216   0.223   0.215   0.210   0.196   0.215   0.225   0.236   0.232   0.224   0.213   0.206   0.204
    56.80    0.264   0.268   0.252   0.249   0.235   0.236   0.229   0.222   0.223   0.221   0.222   0.234   0.229   0.212   0.215   0.216   0.214   0.212   0.223   0.222   0.222   0.226   0.219   0.208   0.216   0.206   0.200   0.206   0.225   0.229   0.216   0.215   0.213   0.202   0.202
    52.15    0.261   0.259   0.264   0.242   0.237   0.223   0.221   0.221   0.219   0.215   0.231   0.227   0.221   0.221   0.215   0.216   0.215   0.207   0.219   0.216   0.216   0.215   0.209   0.214   0.206   0.208   0.195   0.204   0.217   0.219   0.212   0.206   0.200   0.197   0.195
    47.50    0.253   0.251   0.253   0.238   0.236   0.233   0.225   0.219   0.215   0.213   0.217   0.220   0.219   0.211   0.212   0.225   0.224   0.212   0.214   0.212   0.206   0.213   0.212   0.220   0.210   0.204   0.213   0.210   0.218   0.212   0.216   0.215   0.209   0.207   0.195
    42.85    0.247   0.238   0.239   0.231   0.227   0.231   0.235   0.223   0.212   0.219   0.218   0.217   0.219   0.210   0.217   0.219   0.231   0.227   0.216   0.198   0.207   0.212   0.221   0.207   0.209   0.203   0.213   0.211   0.228   0.226   0.216   0.223   0.218   0.222   0.206
    38.20    0.242   0.241   0.242   0.233   0.239   0.243   0.233   0.228   0.231   0.223   0.209   0.218   0.221   0.212   0.211   0.220   0.224   0.217   0.203   0.195   0.194   0.207   0.213   0.204   0.203   0.198   0.217   0.213   0.212   0.221   0.226   0.236   0.238   0.221   0.209
    33.55    0.229   0.227   0.235   0.226   0.230   0.247   0.229   0.223   0.220   0.222   0.220   0.227   0.218   0.211   0.206   0.211   0.214   0.211   0.205   0.197   0.195   0.208   0.216   0.205   0.196   0.199   0.209   0.217   0.214   0.220   0.222   0.222   0.227   0.227   0.226
    28.90    0.229   0.219   0.235   0.239   0.240   0.239   0.235   0.227   0.215   0.211   0.212   0.222   0.231   0.225   0.219   0.216   0.216   0.217   0.205   0.198   0.200   0.211   0.213   0.211   0.200   0.201   0.209   0.212   0.210   0.212   0.220   0.221   0.224   0.217   0.225
    24.25    0.232   0.227   0.238   0.247   0.235   0.232   0.228   0.219   0.219   0.219   0.223   0.233   0.226   0.221   0.215   0.222   0.215   0.210   0.206   0.195   0.200   0.204   0.212   0.208   0.204   0.217   0.213   0.218   0.216   0.214   0.217   0.232   0.226   0.224   0.233
    19.60    0.238   0.237   0.226   0.235   0.228   0.231   0.226   0.218   0.230   0.223   0.218   0.229   0.227   0.226   0.226   0.227   0.214   0.210   0.210   0.203   0.201   0.203   0.219   0.229   0.222   0.222   0.216   0.211   0.212   0.204   0.215   0.227   0.211   0.221   0.231
    14.95    0.241   0.234   0.235   0.231   0.228   0.235   0.232   0.211   0.219   0.215   0.216   0.227   0.231   0.223   0.232   0.239   0.220   0.213   0.215   0.212   0.218   0.214   0.220   0.220   0.224   0.216   0.212   0.217   0.220   0.211   0.214   0.222   0.210   0.219   0.228
    10.30    0.230   0.233   0.228   0.229   0.211   0.224   0.224   0.212   0.213   0.221   0.223   0.225   0.219   0.213   0.221   0.234   0.236   0.223   0.211   0.204   0.213   0.215   0.221   0.216   0.212   0.210   0.209   0.209   0.220   0.228   0.225   0.207   0.212   0.213   0.217
     5.65    0.224   0.230   0.229   0.224   0.218   0.223   0.222   0.221   0.219   0.232   0.224   0.229   0.217   0.215   0.222   0.230   0.230   0.223   0.220   0.227   0.208   0.214   0.213   0.214   0.202   0.205   0.210   0.208   0.214   0.217   0.215   0.211   0.212   0.214   0.213
     1.00    0.223   0.222   0.217   0.222   0.220   0.216   0.221   0.211   0.213   0.224   0.206   0.209   0.216   0.216   0.230   0.220   0.227   0.232   0.226   0.225   0.231   0.217   0.210   0.213   0.211   0.225   0.214   0.210   0.213   0.208   0.216   0.213   0.211   0.208   0.212

   Height   Standard deviation at grid points for the w component:
   168.40    0.147   0.142   0.148   0.147   0.149   0.151   0.151   0.152   0.153   0.146   0.147   0.144   0.139   0.143   0.145   0.139   0.137   0.134   0.139   0.137   0.138   0.142   0.140   0.138   0.138   0.137   0.136   0.133   0.130   0.137   0.135   0.135   0.134   0.137   0.139
   163.75    0.146   0.146   0.150   0.149   0.151   0.148   0.153   0.156   0.145   0.139   0.140   0.139   0.140   0.140   0.142   0.137   0.134   0.136   0.137   0.136   0.141   0.140   0.140   0.141   0.143   0.142   0.138   0.130   0.136   0.139   0.136   0.134   0.138   0.142   0.134
   159.10    0.148   0.149   0.144   0.149   0.150   0.145   0.148   0.146   0.146   0.146   0.144   0.143   0.146   0.141   0.139   0.136   0.140   0.140   0.139   0.139   0.136   0.134   0.139   0.135   0.141   0.142   0.136   0.133   0.141   0.133   0.131   0.135   0.131   0.136   0.132
   154.45    0.148   0.143   0.147   0.146   0.148   0.143   0.143   0.147   0.145   0.141   0.141   0.135   0.143   0.141   0.141   0.142   0.146   0.148   0.140   0.141   0.137   0.134   0.137   0.134   0.136   0.136   0.138   0.141   0.138   0.139   0.133   0.133   0.136   0.132   0.137
   149.80    0.148   0.147   0.144   0.145   0.145   0.141   0.144   0.138   0.139   0.143   0.142   0.138   0.138   0.138   0.137   0.139   0.144   0.142   0.143   0.141   0.135   0.132   0.134   0.132   0.133   0.130   0.138   0.143   0.138   0.136   0.139   0.131   0.136   0.133   0.138
   145.15    0.144   0.140   0.143   0.144   0.139   0.144   0.150   0.148   0.139   0.142   0.141   0.144   0.140   0.138   0.134   0.137   0.141   0.140   0.144   0.137   0.137   0.137   0.140   0.136   0.133   0.136   0.141   0.142   0.140   0.140   0.139   0.138   0.134   0.135   0.132
   140.50    0.147   0.147   0.148   0.147   0.146   0.149   0.143   0.145   0.141   0.143   0.140   0.140   0.149   0.142   0.135   0.137   0.140   0.139   0.142   0.141   0.142   0.143   0.136   0.136   0.128   0.134   0.141   0.147   0.146   0.148   0.147   0.144   0.138   0.134   0.137
   135.85    0.144   0.142   0.151   0.151   0.150   0.147   0.143   0.143   0.140   0.141   0.139   0.140   0.143   0.145   0.139   0.138   0.140   0.140   0.143   0.141   0.139   0.141   0.136   0.135   0.133   0.137   0.138   0.145   0.145   0.143   0.143   0.145   0.140   0.136   0.138
   131.20    0.145   0.145   0.147   0.149   0.148   0.142   0.146   0.141   0.145   0.143   0.140   0.140   0.139   0.137   0.138   0.142   0.141   0.139   0.144   0.143   0.142   0.137   0.134   0.137   0.134   0.141   0.143   0.141   0.145   0.143   0.146   0.142   0.142   0.138   0.139
   126.55    0.144   0.148   0.146   0.141   0.148   0.152   0.148   0.142   0.141   0.136   0.138   0.138   0.135   0.136   0.136   0.139   0.137   0.134   0.139   0.144   0.143   0.135   0.137   0.136   0.140   0.144   0.140   0.141   0.139   0.145   0.142   0.139   0.145   0.140   0.137
   121.90    0.143   0.145   0.145   0.147   0.148   0.146   0.142   0.141   0.144   0.141   0.138   0.143   0.143   0.138   0.136   0.138   0.136   0.136   0.134   0.135   0.138   0.136   0.141   0.140   0.140   0.142   0.143   0.145   0.143   0.145   0.142   0.140   0.146   0.144   0.142
   117.25    0.139   0.147   0.146   0.148   0.151   0.151   0.143   0.138   0.139   0.138   0.146   0.140   0.141   0.143   0.136   0.140   0.138   0.132   0.133   0.137   0.137   0.140   0.142   0.142   0.141   0.138   0.140   0.142   0.141   0.143   0.140   0.142   0.147   0.139   0.145
   112.60    0.145   0.144   0.151   0.143   0.144   0.146   0.147   0.143   0.143   0.144   0.149   0.146   0.148   0.145   0.143   0.143   0.138   0.134   0.136   0.140   0.137   0.138   0.142   0.140   0.141   0.136   0.131   0.139   0.139   0.141   0.141   0.140   0.138   0.137   0.143
   107.95    0.137   0.143   0.147   0.151   0.150   0.151   0.146   0.143   0.140   0.143   0.152   0.146   0.147   0.146   0.147   0.147   0.143   0.139   0.140   0.137   0.140   0.138   0.138   0.134   0.136   0.134   0.134   0.136   0.137   0.139   0.142   0.140   0.136   0.135   0.135
   103.30    0.139   0.140   0.148   0.148   0.150   0.147   0.142   0.141   0.143   0.146   0.146   0.141   0.141   0.144   0.139   0.137   0.140   0.140   0.143   0.136   0.140   0.138   0.137   0.133   0.136   0.137   0.138   0.138   0.136   0.137   0.136   0.135   0.139   0.135   0.136
    98.65    0.138   0.144   0.146   0.140   0.144   0.145   0.146   0.141   0.143   0.143   0.144   0.140   0.132   0.135   0.139   0.139   0.139   0.137   0.142   0.139   0.131   0.137   0.143   0.136   0.135   0.136   0.134   0.133   0.134   0.136   0.136   0.136   0.137   0.137   0.134
    94.00    0.144   0.142   0.141   0.146   0.146   0.145   0.147   0.142   0.140   0.137   0.139   0.138   0.133   0.136   0.136   0.140   0.143   0.141   0.143   0.140   0.137   0.137   0.142   0.136   0.133   0.138   0.132   0.136   0.134   0.137   0.133   0.137   0.131   0.132   0.136
    89.35    0.139   0.137   0.137   0.140   0.142   0.142   0.147   0.145   0.141   0.134   0.139   0.136   0.132   0.136   0.135   0.137   0.138   0.138   0.141   0.140   0.134   0.134   0.140   0.139   0.137   0.135   0.134   0.133   0.136   0.135   0.134   0.135   0.133   0.133   0.133
    84.70    0.139   0.129   0.129   0.132   0.138   0.138   0.140   0.139   0.139   0.142   0.138   0.132   0.130   0.129   0.138   0.135   0.139   0.138   0.138   0.142   0.136   0.135   0.136   0.137   0.137   0.135   0.130   0.135   0.137   0.138   0.136   0.131   0.131   0.133   0.138
    80.05    0.132   0.129   0.133   0.132   0.138   0.135   0.140   0.138   0.138   0.135   0.134   0.132   0.133   0.131   0.137   0.133   0.135   0.134   0.141   0.143   0.139   0.133   0.133   0.135   0.139   0.136   0.133   0.141   0.136   0.139   0.137   0.131   0.130   0.131   0.130
    75.40    0.133   0.129   0.130   0.133   0.134   0.134   0.128   0.134   0.135   0.133   0.131   0.134   0.136   0.133   0.136   0.135   0.132   0.133   0.140   0.142   0.139   0.136   0.134   0.135   0.140   0.137   0.139   0.135   0.137   0.136   0.132   0.128   0.126   0.127   0.130
    70.75    0.133   0.135   0.135   0.133   0.133   0.137   0.138   0.135   0.132   0.133   0.134   0.134   0.139   0.131   0.132   0.132   0.128   0.130   0.133   0.136   0.136   0.134   0.135   0.138   0.139   0.146   0.143   0.137   0.139   0.135   0.133   0.129   0.130   0.134   0.130
    66.10    0.137   0.134   0.131   0.134   0.138   0.139   0.138   0.135   0.133   0.133   0.136   0.135   0.136   0.136   0.133   0.130   0.133   0.133   0.130   0.135   0.133   0.135   0.134   0.137   0.147   0.148   0.144   0.142   0.141   0.138   0.130   0.132   0.132   0.136   0.132
    61.45    0.141   0.134   0.132   0.135   0.139   0.142   0.142   0.137   0.136   0.135   0.132   0.132   0.131   0.131   0.132   0.134   0.132   0.132   0.133   0.132   0.132   0.138   0.139   0.140   0.144   0.145   0.145   0.142   0.142   0.137   0.139   0.137   0.133   0.137   0.139
    56.80    0.135   0.132   0.131   0.133   0.137   0.138   0.139   0.142   0.134   0.137   0.128   0.132   0.134   0.133   0.135   0.136   0.137   0.136   0.137   0.133   0.136   0.140   0.140   0.142   0.143   0.150   0.147   0.143   0.139   0.138   0.142   0.132   0.131   0.130   0.131
    52.15    0.139   0.133   0.130   0.130   0.135   0.135   0.138   0.135   0.138   0.135   0.139   0.139   0.139   0.136   0.134   0.135   0.139   0.140   0.137   0.134   0.136   0.141   0.141   0.142   0.145   0.143   0.143   0.144   0.141   0.144   0.138   0.134   0.135   0.128   0.130
    47.50    0.139   0.140   0.130   0.134   0.135   0.134   0.134   0.138   0.139   0.140   0.133   0.133   0.134   0.136   0.134   0.134   0.136   0.136   0.130   0.130   0.130   0.135   0.137   0.141   0.144   0.143   0.143   0.151   0.149   0.145   0.146   0.133   0.133   0.130   0.131
    42.85    0.144   0.139   0.134   0.131   0.129   0.135   0.135   0.136   0.136   0.137   0.135   0.136   0.132   0.131   0.133   0.133   0.133   0.134   0.131   0.126   0.133   0.135   0.134   0.141   0.139   0.141   0.145   0.147   0.147   0.142   0.140   0.137   0.136   0.131   0.134
    38.20    0.145   0.139   0.141   0.131   0.133   0.135   0.135   0.137   0.140   0.134   0.138   0.133   0.135   0.137   0.137   0.135   0.140   0.132   0.131   0.128   0.131   0.134   0.139   0.140   0.137   0.140   0.146   0.139   0.141   0.140   0.139   0.138   0.133   0.135   0.130
    33.55    0.146   0.146   0.143   0.137   0.132   0.129   0.138   0.134   0.137   0.137   0.139   0.134   0.128   0.141   0.136   0.140   0.134   0.129   0.130   0.131   0.134   0.135   0.137   0.138   0.142   0.143   0.142   0.139   0.138   0.142   0.144   0.142   0.138   0.141   0.136
    28.90    0.149   0.147   0.144   0.134   0.132   0.137   0.140   0.139   0.136   0.144   0.140   0.136   0.135   0.136   0.136   0.131   0.131   0.138   0.137   0.133   0.132   0.135   0.135   0.134   0.138   0.144   0.138   0.139   0.142   0.138   0.134   0.130   0.135   0.132   0.130
    24.25    0.140   0.141   0.144   0.138   0.133   0.139   0.137   0.137   0.145   0.140   0.140   0.135   0.135   0.129   0.129   0.128   0.134   0.136   0.135   0.137   0.137   0.138   0.139   0.133   0.139   0.142   0.144   0.144   0.142   0.132   0.134   0.131   0.139   0.135   0.132
    19.60    0.138   0.142   0.142   0.135   0.135   0.143   0.138   0.140   0.140   0.135   0.133   0.135   0.135   0.140   0.134   0.135   0.133   0.133   0.137   0.139   0.142   0.139   0.138   0.137   0.139   0.139   0.144   0.137   0.135   0.133   0.134   0.136   0.135   0.138   0.134
    14.95    0.140   0.140   0.137   0.135   0.137   0.142   0.135   0.139   0.139   0.131   0.135   0.131   0.140   0.138   0.136   0.141   0.136   0.135   0.139   0.142   0.146   0.135   0.138   0.143   0.142   0.139   0.136   0.136   0.135   0.134   0.134   0.134   0.136   0.142   0.136
    10.30    0.142   0.140   0.136   0.132   0.134   0.132   0.133   0.134   0.135   0.130   0.138   0.136   0.140   0.141   0.138   0.143   0.144   0.137   0.144   0.145   0.145   0.142   0.135   0.141   0.140   0.137   0.141   0.136   0.133   0.136   0.138   0.137   0.143   0.144   0.134
     5.65    0.140   0.139   0.140   0.135   0.132   0.133   0.132   0.134   0.134   0.134   0.138   0.143   0.152   0.147   0.144   0.139   0.145   0.143   0.140   0.147   0.139   0.138   0.137   0.137   0.137   0.141   0.138   0.138   0.139   0.137   0.137   0.136   0.138   0.139   0.137
     1.00    0.139   0.141   0.145   0.136   0.133   0.131   0.128   0.134   0.141   0.144   0.142   0.144   0.148   0.145   0.148   0.147   0.143   0.143   0.146   0.143   0.141   0.137   0.135   0.137   0.135   0.137   0.134   0.136   0.142   0.137   0.134   0.136   0.136   0.136   0.136

   Mean standard deviation across all grid points:
      u component:    0.285 m/s
      v component:    0.224 m/s
      w component:    0.138 m/s


U-component (X) statistics from the interpolated hub point:

   Mean =   9.9913 m/s
   TI   =   3.0914 %


Processing complete.  6152.8 CPU seconds used.
