
This summary file was generated by TurbSim (from OpenFAST-v3.5.3) on 20-Apr-2025 at 08:48:38.


Runtime Options:

1333634118  Random seed #1
    RANLUX  Type of random number generator
         F  Output binary HH turbulence parameters?
         F  Output formatted turbulence parameters?
         F  Output AeroDyn HH files?
         T  Output AeroDyn FF files?
         F  Output BLADED FF files?
         F  Output tower data?
         F  Output HAWC FF files?
         F  Output formatted FF files?
         T  Output coherent turbulence time step file?
 0 -  NONE  IEC turbulence models scaled to exact specified standard deviation


Turbine/Model Specifications:

        37  Vertical grid-point matrix dimension
        35  Horizontal grid-point matrix dimension
     0.250  Time step [seconds]
   900.000  Analysis time [seconds]
   900.000  Usable output time [seconds]
    89.350  Hub height [m]
   167.400  Grid height [m]
   158.100  Grid width [m]
     0.000  Vertical flow angle [degrees]
     0.000  Horizontal flow angle [degrees]


Meteorological Boundary Conditions:

    TIMESR  User-input time series spectral model
       N/A  IEC standard
       N/A  IEC turbulence characteristic
       N/A  IEC turbulence type
       N/A  IEC Extreme Turbulence Model (ETM) "c" parameter [m/s]
       PL   Wind profile type
    90.000  Reference height [m]
    10.000  Reference wind speed [m/s]
       N/A  Jet height [m]
     0.120  Power law exponent
     0.030  Surface roughness length [m]


Non-IEC Meteorological Boundary Conditions:

    45.000  Site latitude [degrees]
     0.050  Gradient Richardson number
     0.480  Friction or shear velocity [m/s]
       N/A  Mixing layer depth [m]
       N/A  Mean hub u'w' Reynolds stress
       N/A  Mean hub u'v' Reynolds stress
       N/A  Mean hub v'w' Reynolds stress


Spatial Coherence Models:

       IEC  u-component coherence model
       IEC  v-component coherence model
       IEC  w-component coherence model
(   12.000, 0.353E-03)  u-component coherence parameters
(   12.000, 0.353E-03)  v-component coherence parameters
(   12.000, 0.353E-03)  w-component coherence parameters
       N/A  Coherence exponent


Coherent Turbulence Scaling Parameters:

.\EventData
            Name of the path containing the coherent turbulence data files
       dns  Type of coherent turbulence data files
     1.000  Disturbance scale (ratio of wave height to rotor diameter)
     0.500  Fractional location of tower centerline from right
     0.500  Fractional location of hub height from the bottom of the dataset
    30.000  Minimum start time for coherent structures [seconds]


Profiles from User-Defined Time-Series Input:

  Height   Wind Speed   Horizontal Angle   Vertical Angle
   (m)        (m/s)          (deg)              (deg)    
  ------   ----------   ----------------   --------------
   94.00      10.00          -0.63               -0.00


You have requested that the following file(s) be generated:

   /kfs3/scratch/agupta/Projects/RL_Incubator/FinalRuns_Veer/Seed4/./FFSim_Seed4/Cond00_v10.0_PL0.12_TI3.0/Case2_wdirp04/Seed_4/TurbSim/HighT12.bts (AeroDyn/TurbSim full-field wind file)


Turbulence Simulation Scaling Parameter Summary:

   Turbulence model used                            =  User-input time series
   Gradient Richardson number                       =    0.050
   Monin-Obukhov (M-O) z/L parameter                =    0.067
   Monin-Obukhov (M-O) length scale                 = 1340.250 m
   Mean wind speed at hub height                    =    9.991 m/s

   Wind profile type                                =  Power law
   Power law exponent                               =    0.120
   Mean shear across rotor disk                     =    0.019 (m/s)/m
   Assumed rotor diameter                           =  158.100 m
   Surface roughness length                         =    0.030 m

   Nyquist frequency of turbulent wind field        =    2.000 Hz

   Number of time steps in the FFT                  =     3600
   Number of time steps output                      =     3600
   Number of points simulated                       =     1296


Mean Flow Angles:

   Vertical   =   0.0 degrees
   Horizontal =   0.0 degrees

Mean Wind Speed Profile:

   Height    Wind Speed   Horizontal Angle  Vertical Angle  U-comp (X)   V-comp (Y)   W-comp (Z)
     (m)        (m/s)         (degrees)       (degrees)       (m/s)        (m/s)        (m/s)   
   ------    ----------   ----------------  --------------  ----------   ----------   ----------
    168.4       10.78            0.00            0.00         10.78         0.00         0.00
    163.7       10.74            0.00            0.00         10.74         0.00         0.00
    159.1       10.71            0.00            0.00         10.71         0.00         0.00
    154.4       10.67            0.00            0.00         10.67         0.00         0.00
    149.8       10.63            0.00            0.00         10.63         0.00         0.00
    145.1       10.59            0.00            0.00         10.59         0.00         0.00
    140.5       10.55            0.00            0.00         10.55         0.00         0.00
    135.8       10.51            0.00            0.00         10.51         0.00         0.00
    131.2       10.46            0.00            0.00         10.46         0.00         0.00
    126.5       10.42            0.00            0.00         10.42         0.00         0.00
    121.9       10.37            0.00            0.00         10.37         0.00         0.00
    117.2       10.32            0.00            0.00         10.32         0.00         0.00
    112.6       10.27            0.00            0.00         10.27         0.00         0.00
    107.9       10.22            0.00            0.00         10.22         0.00         0.00
    103.3       10.17            0.00            0.00         10.17         0.00         0.00
     98.6       10.11            0.00            0.00         10.11         0.00         0.00
     94.0       10.05            0.00            0.00         10.05         0.00         0.00
     89.3        9.99            0.00            0.00          9.99         0.00         0.00
     84.7        9.93            0.00            0.00          9.93         0.00         0.00
     80.0        9.86            0.00            0.00          9.86         0.00         0.00
     75.4        9.79            0.00            0.00          9.79         0.00         0.00
     70.7        9.72            0.00            0.00          9.72         0.00         0.00
     66.1        9.64            0.00            0.00          9.64         0.00         0.00
     61.4        9.55            0.00            0.00          9.55         0.00         0.00
     56.8        9.46            0.00            0.00          9.46         0.00         0.00
     52.1        9.37            0.00            0.00          9.37         0.00         0.00
     47.5        9.26            0.00            0.00          9.26         0.00         0.00
     42.8        9.15            0.00            0.00          9.15         0.00         0.00
     38.2        9.02            0.00            0.00          9.02         0.00         0.00
     33.5        8.88            0.00            0.00          8.88         0.00         0.00
     28.9        8.73            0.00            0.00          8.73         0.00         0.00
     24.2        8.54            0.00            0.00          8.54         0.00         0.00
     19.6        8.33            0.00            0.00          8.33         0.00         0.00
     14.9        8.06            0.00            0.00          8.06         0.00         0.00
     10.3        7.71            0.00            0.00          7.71         0.00         0.00
      5.6        7.17            0.00            0.00          7.17         0.00         0.00
      1.0        5.83            0.00            0.00          5.83         0.00         0.00


Harvested Random Seeds after Generation of the Random Numbers:

     65026800 K 1
            0 K 2


Hub-Height Simulated Turbulence Statistical Summary:

   Type of Wind        Min (m/s)   Mean (m/s)    Max (m/s)  Sigma (m/s)       TI (%)
   ----------------    ---------   ----------    ---------  -----------       ------
   Longitudinal (u)         8.92         9.99        10.88        0.312        3.122
   Lateral (v)             -0.80         0.00         0.74        0.226        2.263
   Vertical (w)            -0.46        -0.00         0.51        0.133        1.333
   U component              8.92         9.99        10.88        0.312        3.122
   V component             -0.80         0.00         0.74        0.226        2.263
   W component             -0.46        -0.00         0.51        0.133        1.333
   Horizontal (U&V)         8.93         9.99        10.88        0.312        3.121
   Total                    8.93         9.99        10.88        0.312        3.120

                       Min Reynolds     Mean Reynolds    Max Reynolds    Correlation
   Product             Stress (m/s)^2   Stress (m/s)^2   Stress (m/s)^2  Coefficient
   ----------------    --------------   --------------   --------------  -----------
   u'w'                     -0.188            -0.001             0.290        -0.034
   u'v'                     -0.446             0.001             0.308         0.009
   v'w'                     -0.287             0.001             0.138         0.023


   Friction Velocity (Ustar)  =      0.037 m/s
   Maximum Instantaneous TKE  =      0.611 (m/s)^2
   Maximum Instantaneous CTKE =      0.228 (m/s)^2


Grid Point Variance Summary:

   Y-coord  -79.05  -74.40  -69.75  -65.10  -60.45  -55.80  -51.15  -46.50  -41.85  -37.20  -32.55  -27.90  -23.25  -18.60  -13.95   -9.30   -4.65    0.00    4.65    9.30   13.95   18.60   23.25   27.90   32.55   37.20   41.85   46.50   51.15   55.80   60.45   65.10   69.75   74.40   79.05

   Height   Standard deviation at grid points for the u component:
   168.40    0.275   0.289   0.274   0.274   0.250   0.259   0.245   0.252   0.262   0.238   0.264   0.260   0.274   0.297   0.281   0.280   0.249   0.257   0.223   0.227   0.224   0.235   0.253   0.274   0.284   0.265   0.280   0.262   0.243   0.239   0.239   0.257   0.268   0.257   0.248
   163.75    0.297   0.281   0.276   0.272   0.269   0.265   0.270   0.260   0.260   0.236   0.260   0.253   0.275   0.271   0.287   0.272   0.252   0.239   0.227   0.233   0.231   0.258   0.259   0.254   0.254   0.255   0.252   0.261   0.250   0.245   0.251   0.269   0.252   0.266   0.249
   159.10    0.308   0.283   0.269   0.286   0.290   0.273   0.260   0.247   0.251   0.267   0.254   0.256   0.262   0.258   0.276   0.255   0.238   0.238   0.255   0.250   0.236   0.264   0.270   0.256   0.220   0.230   0.247   0.246   0.255   0.254   0.244   0.269   0.265   0.261   0.251
   154.45    0.308   0.290   0.278   0.285   0.286   0.277   0.272   0.277   0.257   0.259   0.258   0.256   0.257   0.248   0.268   0.260   0.252   0.253   0.263   0.252   0.251   0.251   0.266   0.252   0.218   0.220   0.245   0.260   0.262   0.264   0.262   0.249   0.257   0.261   0.254
   149.80    0.329   0.315   0.278   0.266   0.272   0.287   0.296   0.290   0.275   0.242   0.244   0.256   0.257   0.261   0.269   0.277   0.256   0.260   0.254   0.242   0.250   0.236   0.241   0.234   0.222   0.224   0.245   0.251   0.264   0.257   0.258   0.260   0.262   0.278   0.258
   145.15    0.325   0.309   0.272   0.282   0.269   0.272   0.292   0.300   0.252   0.245   0.234   0.250   0.280   0.291   0.266   0.259   0.260   0.264   0.275   0.247   0.261   0.251   0.235   0.236   0.229   0.216   0.236   0.247   0.249   0.243   0.247   0.257   0.273   0.270   0.253
   140.50    0.299   0.286   0.297   0.285   0.267   0.264   0.275   0.288   0.255   0.248   0.231   0.247   0.261   0.270   0.277   0.297   0.277   0.271   0.266   0.254   0.242   0.247   0.230   0.231   0.212   0.219   0.233   0.246   0.249   0.260   0.253   0.256   0.276   0.255   0.266
   135.85    0.289   0.292   0.289   0.282   0.272   0.261   0.266   0.272   0.278   0.255   0.247   0.228   0.248   0.279   0.280   0.284   0.293   0.277   0.285   0.270   0.231   0.241   0.240   0.240   0.231   0.240   0.246   0.249   0.234   0.239   0.250   0.262   0.264   0.258   0.246
   131.20    0.306   0.306   0.287   0.303   0.295   0.271   0.264   0.269   0.284   0.275   0.242   0.221   0.229   0.256   0.278   0.269   0.282   0.299   0.266   0.247   0.240   0.237   0.250   0.244   0.250   0.237   0.240   0.248   0.232   0.247   0.262   0.271   0.275   0.262   0.266
   126.55    0.294   0.293   0.312   0.304   0.286   0.274   0.276   0.280   0.280   0.277   0.250   0.214   0.218   0.241   0.268   0.266   0.284   0.277   0.250   0.250   0.263   0.246   0.237   0.258   0.247   0.229   0.244   0.242   0.240   0.247   0.247   0.258   0.274   0.270   0.257
   121.90    0.262   0.270   0.288   0.293   0.304   0.288   0.288   0.302   0.281   0.261   0.234   0.229   0.224   0.243   0.255   0.274   0.258   0.253   0.246   0.271   0.272   0.278   0.250   0.268   0.249   0.236   0.251   0.231   0.241   0.252   0.245   0.240   0.259   0.242   0.261
   117.25    0.254   0.273   0.294   0.316   0.330   0.304   0.295   0.302   0.299   0.280   0.249   0.242   0.236   0.258   0.284   0.283   0.284   0.256   0.270   0.259   0.264   0.271   0.275   0.271   0.247   0.241   0.248   0.243   0.240   0.260   0.254   0.243   0.255   0.260   0.252
   112.60    0.251   0.280   0.297   0.314   0.314   0.304   0.283   0.292   0.300   0.279   0.271   0.252   0.266   0.274   0.264   0.270   0.274   0.265   0.261   0.257   0.257   0.267   0.258   0.270   0.254   0.254   0.248   0.246   0.256   0.248   0.272   0.271   0.257   0.252   0.246
   107.95    0.252   0.280   0.285   0.311   0.318   0.322   0.307   0.289   0.284   0.300   0.271   0.273   0.276   0.276   0.285   0.271   0.289   0.285   0.285   0.283   0.257   0.262   0.266   0.250   0.266   0.237   0.253   0.243   0.266   0.258   0.283   0.291   0.293   0.273   0.266
   103.30    0.268   0.291   0.288   0.292   0.318   0.310   0.292   0.265   0.282   0.274   0.263   0.279   0.292   0.282   0.258   0.298   0.289   0.298   0.291   0.271   0.264   0.264   0.253   0.255   0.266   0.258   0.250   0.272   0.278   0.303   0.304   0.287   0.260   0.280   0.270
    98.65    0.282   0.286   0.294   0.281   0.305   0.310   0.291   0.279   0.266   0.267   0.278   0.285   0.287   0.275   0.294   0.287   0.306   0.308   0.292   0.273   0.261   0.268   0.250   0.233   0.240   0.262   0.271   0.287   0.291   0.296   0.298   0.289   0.278   0.262   0.266
    94.00    0.309   0.307   0.303   0.307   0.297   0.306   0.310   0.290   0.283   0.270   0.276   0.292   0.307   0.293   0.300   0.305   0.308   0.308   0.284   0.291   0.258   0.274   0.258   0.256   0.258   0.260   0.286   0.293   0.281   0.276   0.288   0.284   0.274   0.267   0.264
    89.35    0.298   0.321   0.330   0.309   0.291   0.305   0.315   0.295   0.280   0.268   0.277   0.289   0.276   0.274   0.303   0.300   0.305   0.312   0.297   0.275   0.273   0.281   0.273   0.256   0.252   0.273   0.283   0.299   0.291   0.287   0.289   0.272   0.259   0.275   0.260
    84.70    0.281   0.315   0.307   0.300   0.306   0.280   0.297   0.296   0.276   0.283   0.291   0.294   0.275   0.282   0.312   0.307   0.308   0.307   0.299   0.277   0.275   0.259   0.267   0.254   0.267   0.282   0.292   0.288   0.271   0.251   0.269   0.254   0.251   0.255   0.263
    80.05    0.305   0.298   0.301   0.291   0.304   0.287   0.291   0.280   0.293   0.280   0.285   0.289   0.297   0.286   0.311   0.300   0.294   0.290   0.310   0.301   0.276   0.266   0.269   0.260   0.269   0.285   0.274   0.277   0.265   0.233   0.236   0.248   0.250   0.249   0.281
    75.40    0.300   0.306   0.287   0.297   0.316   0.289   0.297   0.293   0.271   0.291   0.302   0.298   0.302   0.328   0.328   0.318   0.293   0.295   0.301   0.300   0.296   0.296   0.269   0.261   0.263   0.271   0.277   0.277   0.248   0.232   0.230   0.247   0.259   0.260   0.280
    70.75    0.301   0.293   0.300   0.299   0.301   0.296   0.278   0.300   0.294   0.305   0.312   0.323   0.318   0.335   0.328   0.307   0.308   0.316   0.303   0.304   0.297   0.277   0.274   0.280   0.257   0.271   0.262   0.268   0.227   0.230   0.234   0.254   0.241   0.263   0.279
    66.10    0.291   0.301   0.311   0.310   0.311   0.304   0.292   0.293   0.284   0.298   0.310   0.320   0.329   0.312   0.329   0.324   0.310   0.317   0.320   0.321   0.279   0.264   0.274   0.270   0.270   0.284   0.284   0.259   0.244   0.239   0.242   0.240   0.237   0.235   0.254
    61.45    0.318   0.309   0.321   0.335   0.307   0.318   0.309   0.301   0.297   0.309   0.344   0.324   0.331   0.321   0.335   0.348   0.347   0.338   0.331   0.311   0.305   0.293   0.267   0.285   0.274   0.283   0.271   0.260   0.260   0.256   0.260   0.243   0.242   0.233   0.251
    56.80    0.319   0.302   0.317   0.312   0.323   0.327   0.293   0.293   0.291   0.313   0.326   0.325   0.322   0.338   0.350   0.376   0.355   0.334   0.318   0.307   0.302   0.285   0.277   0.285   0.286   0.280   0.275   0.266   0.260   0.255   0.260   0.260   0.271   0.269   0.270
    52.15    0.310   0.285   0.309   0.319   0.327   0.316   0.290   0.280   0.285   0.293   0.327   0.332   0.327   0.348   0.357   0.348   0.336   0.333   0.302   0.318   0.303   0.301   0.289   0.281   0.284   0.288   0.279   0.254   0.268   0.262   0.270   0.282   0.271   0.269   0.282
    47.50    0.299   0.304   0.308   0.314   0.323   0.310   0.286   0.306   0.288   0.300   0.315   0.319   0.319   0.342   0.342   0.331   0.341   0.322   0.313   0.325   0.313   0.309   0.272   0.287   0.282   0.289   0.279   0.272   0.279   0.290   0.302   0.309   0.306   0.281   0.291
    42.85    0.293   0.310   0.303   0.307   0.294   0.299   0.295   0.283   0.308   0.295   0.313   0.326   0.336   0.336   0.340   0.332   0.329   0.312   0.286   0.286   0.298   0.308   0.285   0.302   0.287   0.300   0.294   0.290   0.299   0.287   0.287   0.297   0.295   0.314   0.303
    38.20    0.306   0.301   0.296   0.296   0.307   0.286   0.297   0.293   0.301   0.302   0.311   0.317   0.312   0.325   0.323   0.327   0.316   0.298   0.273   0.282   0.282   0.297   0.280   0.290   0.285   0.292   0.323   0.311   0.308   0.289   0.288   0.273   0.300   0.329   0.324
    33.55    0.277   0.290   0.299   0.313   0.299   0.277   0.287   0.306   0.296   0.307   0.320   0.316   0.330   0.336   0.315   0.299   0.294   0.282   0.287   0.280   0.299   0.308   0.285   0.295   0.289   0.297   0.305   0.308   0.339   0.316   0.314   0.301   0.328   0.345   0.320
    28.90    0.268   0.270   0.273   0.295   0.282   0.293   0.278   0.285   0.298   0.302   0.326   0.313   0.322   0.316   0.304   0.292   0.276   0.275   0.282   0.299   0.314   0.315   0.297   0.296   0.293   0.278   0.294   0.318   0.329   0.328   0.325   0.324   0.327   0.321   0.337
    24.25    0.269   0.270   0.292   0.288   0.288   0.285   0.299   0.273   0.287   0.317   0.313   0.309   0.310   0.305   0.301   0.304   0.279   0.273   0.277   0.292   0.317   0.310   0.301   0.286   0.292   0.278   0.287   0.301   0.316   0.327   0.327   0.323   0.338   0.350   0.325
    19.60    0.275   0.296   0.284   0.300   0.302   0.293   0.298   0.310   0.317   0.316   0.312   0.316   0.303   0.317   0.315   0.298   0.275   0.284   0.291   0.300   0.307   0.320   0.302   0.294   0.275   0.290   0.297   0.316   0.324   0.326   0.329   0.331   0.345   0.343   0.354
    14.95    0.294   0.288   0.274   0.277   0.287   0.289   0.315   0.295   0.315   0.301   0.302   0.308   0.300   0.300   0.308   0.313   0.301   0.301   0.297   0.313   0.307   0.332   0.316   0.298   0.285   0.289   0.302   0.330   0.328   0.318   0.320   0.325   0.332   0.338   0.326
    10.30    0.285   0.286   0.284   0.284   0.294   0.285   0.297   0.313   0.311   0.303   0.298   0.295   0.301   0.294   0.309   0.315   0.314   0.307   0.315   0.320   0.319   0.318   0.311   0.278   0.275   0.268   0.302   0.314   0.318   0.321   0.307   0.297   0.323   0.319   0.318
     5.65    0.301   0.280   0.274   0.288   0.295   0.298   0.297   0.294   0.299   0.276   0.296   0.282   0.287   0.281   0.292   0.303   0.300   0.334   0.332   0.327   0.325   0.297   0.300   0.279   0.261   0.255   0.277   0.297   0.325   0.332   0.290   0.294   0.299   0.321   0.316
     1.00    0.310   0.317   0.295   0.289   0.277   0.299   0.291   0.288   0.293   0.295   0.295   0.304   0.299   0.303   0.309   0.312   0.301   0.300   0.331   0.302   0.296   0.292   0.274   0.266   0.272   0.262   0.266   0.278   0.300   0.314   0.287   0.277   0.292   0.305   0.297

   Height   Standard deviation at grid points for the v component:
   168.40    0.211   0.222   0.217   0.226   0.222   0.201   0.208   0.217   0.217   0.214   0.222   0.226   0.210   0.215   0.216   0.221   0.218   0.216   0.216   0.216   0.198   0.200   0.206   0.206   0.201   0.214   0.208   0.210   0.200   0.212   0.211   0.212   0.209   0.214   0.210
   163.75    0.217   0.220   0.220   0.210   0.200   0.204   0.214   0.221   0.215   0.231   0.212   0.204   0.218   0.211   0.228   0.231   0.235   0.222   0.223   0.214   0.213   0.213   0.213   0.214   0.209   0.213   0.214   0.208   0.204   0.205   0.217   0.219   0.225   0.227   0.218
   159.10    0.213   0.220   0.215   0.211   0.214   0.215   0.207   0.218   0.226   0.226   0.219   0.225   0.214   0.218   0.225   0.225   0.220   0.242   0.239   0.220   0.213   0.211   0.206   0.206   0.209   0.218   0.219   0.206   0.194   0.205   0.215   0.224   0.229   0.232   0.236
   154.45    0.208   0.207   0.206   0.204   0.217   0.214   0.214   0.214   0.215   0.229   0.229   0.216   0.229   0.217   0.208   0.236   0.230   0.242   0.238   0.238   0.219   0.213   0.219   0.207   0.207   0.217   0.207   0.201   0.201   0.207   0.220   0.229   0.234   0.224   0.235
   149.80    0.201   0.201   0.203   0.202   0.215   0.214   0.222   0.221   0.217   0.222   0.221   0.229   0.232   0.211   0.210   0.216   0.230   0.241   0.237   0.226   0.224   0.223   0.216   0.213   0.216   0.218   0.210   0.209   0.213   0.214   0.212   0.222   0.224   0.229   0.245
   145.15    0.214   0.202   0.210   0.200   0.199   0.208   0.210   0.206   0.219   0.220   0.213   0.223   0.230   0.223   0.225   0.229   0.237   0.222   0.230   0.223   0.224   0.211   0.201   0.204   0.210   0.215   0.207   0.209   0.200   0.215   0.212   0.217   0.232   0.220   0.232
   140.50    0.193   0.195   0.199   0.195   0.197   0.199   0.204   0.196   0.218   0.218   0.216   0.214   0.228   0.214   0.215   0.231   0.237   0.221   0.223   0.214   0.215   0.223   0.211   0.200   0.202   0.207   0.208   0.218   0.230   0.221   0.214   0.215   0.226   0.240   0.230
   135.85    0.214   0.203   0.201   0.203   0.200   0.192   0.189   0.203   0.214   0.214   0.215   0.219   0.223   0.217   0.211   0.220   0.226   0.225   0.222   0.221   0.214   0.212   0.220   0.211   0.212   0.205   0.203   0.211   0.228   0.221   0.223   0.216   0.230   0.231   0.247
   131.20    0.200   0.207   0.208   0.200   0.199   0.203   0.202   0.201   0.217   0.218   0.225   0.223   0.221   0.224   0.234   0.218   0.216   0.217   0.211   0.222   0.210   0.212   0.214   0.211   0.208   0.205   0.199   0.217   0.206   0.217   0.217   0.213   0.231   0.233   0.242
   126.55    0.199   0.196   0.205   0.213   0.208   0.205   0.211   0.208   0.223   0.210   0.227   0.230   0.218   0.216   0.224   0.230   0.222   0.214   0.203   0.207   0.203   0.209   0.218   0.217   0.203   0.213   0.210   0.211   0.206   0.214   0.218   0.217   0.218   0.235   0.235
   121.90    0.207   0.209   0.201   0.210   0.216   0.215   0.228   0.218   0.217   0.229   0.242   0.227   0.225   0.234   0.219   0.237   0.216   0.212   0.220   0.200   0.215   0.200   0.216   0.213   0.201   0.214   0.204   0.208   0.202   0.212   0.216   0.211   0.224   0.242   0.252
   117.25    0.199   0.211   0.210   0.221   0.216   0.217   0.228   0.232   0.230   0.230   0.230   0.243   0.226   0.229   0.224   0.229   0.223   0.213   0.213   0.221   0.212   0.215   0.207   0.224   0.222   0.226   0.211   0.199   0.203   0.208   0.215   0.216   0.225   0.235   0.234
   112.60    0.203   0.195   0.209   0.222   0.236   0.236   0.232   0.228   0.228   0.225   0.245   0.251   0.247   0.232   0.228   0.216   0.204   0.207   0.216   0.222   0.225   0.210   0.208   0.217   0.221   0.216   0.214   0.208   0.218   0.211   0.217   0.213   0.224   0.228   0.230
   107.95    0.202   0.198   0.217   0.225   0.227   0.227   0.234   0.245   0.239   0.213   0.233   0.235   0.244   0.237   0.226   0.217   0.231   0.216   0.226   0.217   0.221   0.220   0.229   0.218   0.217   0.215   0.225   0.221   0.219   0.204   0.218   0.222   0.223   0.233   0.232
   103.30    0.205   0.211   0.218   0.236   0.227   0.234   0.220   0.230   0.225   0.233   0.236   0.245   0.246   0.232   0.228   0.216   0.225   0.220   0.226   0.218   0.217   0.232   0.228   0.226   0.227   0.210   0.214   0.227   0.228   0.216   0.229   0.224   0.211   0.217   0.230
    98.65    0.202   0.209   0.219   0.238   0.230   0.238   0.232   0.235   0.228   0.238   0.235   0.234   0.243   0.252   0.235   0.223   0.231   0.222   0.222   0.222   0.225   0.220   0.225   0.234   0.233   0.224   0.216   0.218   0.218   0.233   0.226   0.221   0.215   0.213   0.216
    94.00    0.205   0.220   0.241   0.236   0.231   0.238   0.222   0.226   0.237   0.234   0.229   0.238   0.237   0.241   0.233   0.227   0.222   0.222   0.231   0.225   0.214   0.224   0.242   0.233   0.241   0.235   0.228   0.233   0.242   0.241   0.229   0.219   0.217   0.224   0.219
    89.35    0.227   0.230   0.239   0.252   0.232   0.235   0.248   0.234   0.236   0.212   0.220   0.220   0.231   0.238   0.221   0.228   0.229   0.226   0.221   0.215   0.217   0.235   0.243   0.249   0.229   0.243   0.235   0.240   0.239   0.232   0.214   0.219   0.211   0.223   0.229
    84.70    0.232   0.234   0.241   0.249   0.228   0.227   0.223   0.232   0.217   0.233   0.226   0.214   0.215   0.222   0.216   0.214   0.217   0.227   0.220   0.218   0.216   0.236   0.231   0.244   0.237   0.239   0.243   0.237   0.219   0.231   0.222   0.222   0.219   0.228   0.223
    80.05    0.226   0.238   0.234   0.247   0.229   0.229   0.229   0.210   0.219   0.224   0.219   0.212   0.203   0.220   0.220   0.222   0.215   0.217   0.213   0.218   0.225   0.237   0.240   0.249   0.239   0.237   0.237   0.230   0.223   0.223   0.232   0.230   0.220   0.224   0.223
    75.40    0.225   0.237   0.237   0.230   0.221   0.216   0.221   0.210   0.213   0.210   0.209   0.209   0.210   0.218   0.205   0.215   0.227   0.215   0.215   0.234   0.236   0.234   0.250   0.245   0.236   0.229   0.226   0.227   0.221   0.245   0.251   0.249   0.246   0.236   0.213
    70.75    0.224   0.229   0.224   0.227   0.200   0.212   0.211   0.200   0.208   0.205   0.203   0.197   0.198   0.212   0.204   0.212   0.224   0.221   0.208   0.218   0.230   0.236   0.244   0.233   0.232   0.228   0.244   0.256   0.248   0.247   0.253   0.248   0.252   0.244   0.228
    66.10    0.231   0.228   0.227   0.225   0.220   0.222   0.212   0.215   0.213   0.217   0.208   0.200   0.198   0.210   0.200   0.202   0.215   0.212   0.214   0.228   0.218   0.229   0.233   0.234   0.232   0.232   0.233   0.256   0.250   0.262   0.261   0.263   0.240   0.241   0.222
    61.45    0.229   0.225   0.224   0.216   0.213   0.218   0.225   0.215   0.212   0.210   0.210   0.207   0.207   0.210   0.199   0.201   0.203   0.204   0.209   0.219   0.212   0.229   0.220   0.238   0.232   0.228   0.220   0.240   0.253   0.265   0.261   0.255   0.244   0.233   0.236
    56.80    0.230   0.231   0.217   0.219   0.217   0.214   0.217   0.215   0.208   0.210   0.215   0.215   0.223   0.222   0.215   0.207   0.213   0.208   0.214   0.208   0.211   0.217   0.233   0.224   0.227   0.228   0.212   0.225   0.251   0.260   0.245   0.237   0.241   0.230   0.236
    52.15    0.229   0.223   0.235   0.211   0.218   0.216   0.209   0.211   0.206   0.204   0.217   0.218   0.226   0.220   0.219   0.212   0.212   0.203   0.208   0.205   0.211   0.227   0.228   0.247   0.227   0.233   0.219   0.226   0.236   0.240   0.244   0.235   0.230   0.222   0.222
    47.50    0.224   0.221   0.224   0.211   0.209   0.222   0.219   0.211   0.204   0.203   0.198   0.206   0.206   0.210   0.203   0.216   0.214   0.210   0.211   0.206   0.213   0.233   0.237   0.237   0.244   0.226   0.235   0.237   0.223   0.227   0.238   0.233   0.226   0.230   0.212
    42.85    0.219   0.224   0.226   0.216   0.212   0.213   0.220   0.214   0.204   0.212   0.209   0.208   0.208   0.196   0.210   0.208   0.225   0.218   0.212   0.208   0.229   0.250   0.241   0.242   0.227   0.225   0.233   0.223   0.230   0.225   0.224   0.227   0.220   0.227   0.221
    38.20    0.224   0.224   0.232   0.227   0.236   0.232   0.219   0.220   0.219   0.216   0.201   0.210   0.209   0.207   0.206   0.203   0.210   0.201   0.204   0.207   0.214   0.240   0.247   0.226   0.215   0.217   0.226   0.233   0.225   0.222   0.228   0.229   0.231   0.223   0.219
    33.55    0.217   0.215   0.227   0.222   0.231   0.246   0.230   0.212   0.209   0.216   0.217   0.230   0.220   0.204   0.202   0.201   0.205   0.206   0.216   0.215   0.220   0.228   0.239   0.209   0.221   0.225   0.238   0.231   0.221   0.213   0.226   0.220   0.227   0.224   0.227
    28.90    0.212   0.212   0.222   0.232   0.232   0.233   0.226   0.227   0.206   0.211   0.213   0.222   0.228   0.210   0.204   0.199   0.207   0.210   0.212   0.210   0.205   0.219   0.217   0.222   0.216   0.228   0.237   0.232   0.218   0.227   0.226   0.232   0.229   0.216   0.210
    24.25    0.211   0.214   0.223   0.228   0.213   0.222   0.217   0.220   0.218   0.215   0.221   0.234   0.226   0.213   0.212   0.199   0.199   0.206   0.209   0.203   0.202   0.201   0.217   0.207   0.225   0.239   0.230   0.223   0.220   0.226   0.225   0.239   0.235   0.220   0.219
    19.60    0.221   0.225   0.212   0.228   0.222   0.226   0.220   0.217   0.231   0.220   0.223   0.239   0.235   0.238   0.225   0.219   0.206   0.208   0.213   0.203   0.202   0.212   0.224   0.230   0.235   0.229   0.234   0.227   0.220   0.208   0.221   0.222   0.221   0.228   0.228
    14.95    0.221   0.224   0.231   0.221   0.218   0.220   0.213   0.208   0.211   0.212   0.223   0.227   0.224   0.225   0.225   0.223   0.220   0.216   0.205   0.203   0.209   0.215   0.219   0.226   0.229   0.232   0.226   0.220   0.232   0.224   0.226   0.221   0.219   0.214   0.228
    10.30    0.209   0.221   0.217   0.222   0.204   0.209   0.222   0.213   0.207   0.212   0.217   0.213   0.214   0.209   0.214   0.225   0.233   0.223   0.205   0.210   0.216   0.219   0.225   0.230   0.227   0.226   0.224   0.226   0.230   0.241   0.247   0.237   0.230   0.221   0.217
     5.65    0.209   0.226   0.225   0.214   0.204   0.217   0.207   0.222   0.217   0.226   0.221   0.226   0.218   0.218   0.220   0.225   0.222   0.210   0.214   0.223   0.213   0.225   0.231   0.236   0.223   0.227   0.236   0.231   0.232   0.235   0.241   0.230   0.224   0.216   0.211
     1.00    0.213   0.221   0.210   0.208   0.210   0.206   0.217   0.221   0.223   0.225   0.211   0.215   0.213   0.214   0.227   0.215   0.214   0.221   0.220   0.211   0.230   0.228   0.233   0.239   0.230   0.243   0.235   0.230   0.240   0.235   0.242   0.224   0.219   0.221   0.206

   Height   Standard deviation at grid points for the w component:
   168.40    0.140   0.135   0.141   0.142   0.148   0.147   0.145   0.144   0.149   0.145   0.146   0.144   0.141   0.142   0.142   0.139   0.139   0.130   0.132   0.135   0.134   0.136   0.132   0.134   0.140   0.140   0.138   0.137   0.134   0.143   0.143   0.142   0.139   0.136   0.137
   163.75    0.140   0.140   0.143   0.143   0.144   0.143   0.147   0.149   0.145   0.144   0.141   0.145   0.144   0.137   0.136   0.138   0.138   0.137   0.137   0.132   0.135   0.134   0.135   0.139   0.143   0.145   0.141   0.136   0.142   0.141   0.141   0.135   0.139   0.139   0.135
   159.10    0.143   0.146   0.141   0.144   0.143   0.141   0.143   0.143   0.145   0.147   0.147   0.145   0.143   0.134   0.134   0.140   0.142   0.140   0.140   0.139   0.137   0.132   0.134   0.133   0.142   0.143   0.143   0.141   0.144   0.140   0.137   0.139   0.138   0.141   0.136
   154.45    0.145   0.143   0.144   0.143   0.145   0.138   0.140   0.144   0.142   0.143   0.142   0.140   0.139   0.137   0.139   0.141   0.141   0.141   0.138   0.141   0.138   0.135   0.137   0.135   0.139   0.139   0.141   0.147   0.147   0.149   0.138   0.138   0.140   0.141   0.142
   149.80    0.145   0.147   0.144   0.139   0.141   0.138   0.141   0.139   0.139   0.140   0.141   0.139   0.136   0.136   0.134   0.132   0.136   0.139   0.142   0.140   0.136   0.130   0.139   0.137   0.139   0.137   0.138   0.146   0.144   0.143   0.145   0.139   0.140   0.139   0.146
   145.15    0.142   0.138   0.143   0.142   0.139   0.142   0.146   0.144   0.137   0.139   0.137   0.139   0.138   0.137   0.134   0.131   0.137   0.132   0.137   0.137   0.136   0.142   0.140   0.141   0.139   0.139   0.141   0.141   0.145   0.143   0.145   0.144   0.141   0.141   0.140
   140.50    0.148   0.143   0.143   0.144   0.146   0.141   0.142   0.145   0.140   0.144   0.141   0.138   0.147   0.140   0.134   0.136   0.135   0.135   0.136   0.136   0.137   0.143   0.139   0.142   0.135   0.140   0.147   0.147   0.148   0.147   0.143   0.144   0.144   0.142   0.139
   135.85    0.144   0.142   0.147   0.148   0.145   0.143   0.140   0.142   0.140   0.142   0.140   0.139   0.143   0.140   0.138   0.135   0.135   0.137   0.137   0.135   0.135   0.141   0.144   0.141   0.135   0.138   0.140   0.146   0.148   0.143   0.144   0.148   0.146   0.145   0.144
   131.20    0.143   0.143   0.142   0.146   0.144   0.142   0.141   0.137   0.141   0.143   0.140   0.137   0.134   0.132   0.135   0.138   0.134   0.133   0.137   0.135   0.136   0.142   0.143   0.145   0.142   0.148   0.146   0.143   0.142   0.143   0.147   0.148   0.145   0.147   0.148
   126.55    0.139   0.145   0.145   0.140   0.146   0.147   0.140   0.136   0.140   0.140   0.139   0.136   0.132   0.129   0.135   0.139   0.135   0.129   0.133   0.135   0.137   0.138   0.140   0.145   0.146   0.151   0.145   0.144   0.142   0.146   0.146   0.145   0.143   0.143   0.142
   121.90    0.141   0.141   0.143   0.144   0.149   0.145   0.135   0.136   0.142   0.137   0.135   0.138   0.135   0.132   0.134   0.137   0.134   0.134   0.130   0.135   0.138   0.138   0.144   0.146   0.145   0.145   0.146   0.145   0.144   0.151   0.146   0.141   0.145   0.142   0.140
   117.25    0.135   0.140   0.138   0.144   0.148   0.145   0.139   0.140   0.136   0.133   0.142   0.139   0.141   0.138   0.135   0.141   0.135   0.133   0.134   0.139   0.139   0.139   0.141   0.147   0.148   0.141   0.142   0.145   0.145   0.145   0.143   0.139   0.145   0.138   0.141
   112.60    0.136   0.137   0.140   0.135   0.139   0.140   0.142   0.138   0.139   0.139   0.144   0.142   0.142   0.140   0.140   0.142   0.140   0.136   0.138   0.141   0.138   0.138   0.141   0.141   0.141   0.137   0.134   0.140   0.142   0.140   0.141   0.139   0.140   0.138   0.142
   107.95    0.135   0.135   0.132   0.136   0.139   0.142   0.143   0.141   0.137   0.143   0.149   0.142   0.139   0.143   0.143   0.146   0.142   0.140   0.139   0.136   0.139   0.137   0.136   0.136   0.134   0.136   0.136   0.137   0.138   0.140   0.140   0.139   0.137   0.135   0.136
   103.30    0.131   0.135   0.136   0.136   0.140   0.142   0.140   0.140   0.143   0.141   0.141   0.140   0.140   0.140   0.138   0.138   0.141   0.140   0.141   0.140   0.138   0.139   0.138   0.135   0.133   0.138   0.136   0.136   0.135   0.137   0.138   0.136   0.139   0.133   0.136
    98.65    0.137   0.141   0.138   0.130   0.137   0.139   0.144   0.141   0.143   0.141   0.145   0.140   0.138   0.135   0.142   0.142   0.141   0.138   0.141   0.138   0.136   0.141   0.139   0.134   0.137   0.137   0.137   0.134   0.132   0.135   0.139   0.139   0.136   0.135   0.136
    94.00    0.142   0.143   0.139   0.136   0.139   0.138   0.142   0.142   0.139   0.140   0.144   0.144   0.137   0.139   0.140   0.143   0.142   0.141   0.137   0.139   0.136   0.139   0.135   0.133   0.133   0.135   0.134   0.139   0.138   0.137   0.140   0.141   0.132   0.130   0.135
    89.35    0.137   0.137   0.142   0.140   0.139   0.140   0.142   0.140   0.141   0.140   0.145   0.140   0.141   0.141   0.142   0.136   0.133   0.133   0.136   0.134   0.137   0.134   0.138   0.138   0.136   0.131   0.134   0.136   0.137   0.138   0.139   0.137   0.135   0.132   0.137
    84.70    0.136   0.134   0.135   0.134   0.136   0.136   0.139   0.137   0.142   0.147   0.144   0.142   0.136   0.131   0.134   0.134   0.133   0.133   0.133   0.136   0.134   0.132   0.134   0.134   0.135   0.133   0.129   0.134   0.140   0.138   0.143   0.138   0.135   0.135   0.138
    80.05    0.135   0.135   0.139   0.136   0.139   0.136   0.140   0.140   0.143   0.142   0.141   0.141   0.137   0.135   0.137   0.132   0.134   0.132   0.133   0.137   0.135   0.130   0.128   0.134   0.135   0.135   0.132   0.136   0.136   0.140   0.139   0.136   0.134   0.136   0.136
    75.40    0.134   0.131   0.136   0.135   0.138   0.137   0.130   0.136   0.140   0.137   0.137   0.141   0.140   0.136   0.135   0.135   0.132   0.131   0.136   0.138   0.136   0.130   0.132   0.132   0.134   0.134   0.137   0.137   0.136   0.137   0.132   0.131   0.131   0.132   0.134
    70.75    0.134   0.135   0.135   0.135   0.133   0.134   0.132   0.135   0.138   0.138   0.138   0.140   0.139   0.133   0.130   0.131   0.126   0.130   0.132   0.131   0.134   0.130   0.131   0.135   0.135   0.136   0.137   0.136   0.138   0.137   0.133   0.129   0.132   0.137   0.132
    66.10    0.137   0.135   0.133   0.136   0.136   0.135   0.135   0.135   0.136   0.135   0.137   0.134   0.138   0.136   0.134   0.128   0.134   0.133   0.131   0.131   0.135   0.133   0.132   0.130   0.142   0.142   0.138   0.138   0.135   0.133   0.132   0.135   0.134   0.137   0.137
    61.45    0.141   0.138   0.135   0.140   0.137   0.139   0.138   0.137   0.138   0.136   0.135   0.132   0.132   0.134   0.136   0.135   0.130   0.129   0.130   0.128   0.129   0.135   0.136   0.137   0.140   0.141   0.139   0.139   0.135   0.134   0.137   0.137   0.135   0.141   0.141
    56.80    0.139   0.137   0.138   0.138   0.139   0.138   0.136   0.138   0.133   0.137   0.132   0.133   0.134   0.136   0.139   0.135   0.134   0.133   0.134   0.133   0.133   0.137   0.137   0.140   0.141   0.143   0.138   0.139   0.134   0.135   0.136   0.131   0.133   0.135   0.131
    52.15    0.144   0.140   0.138   0.137   0.136   0.139   0.143   0.138   0.141   0.134   0.137   0.138   0.138   0.134   0.135   0.135   0.138   0.140   0.141   0.138   0.138   0.140   0.139   0.142   0.144   0.140   0.138   0.137   0.138   0.139   0.138   0.135   0.140   0.135   0.132
    47.50    0.145   0.144   0.136   0.136   0.135   0.138   0.141   0.143   0.141   0.141   0.135   0.138   0.138   0.139   0.137   0.135   0.134   0.136   0.136   0.133   0.135   0.140   0.141   0.145   0.146   0.143   0.141   0.149   0.146   0.143   0.145   0.135   0.135   0.131   0.133
    42.85    0.149   0.143   0.138   0.135   0.136   0.141   0.139   0.143   0.135   0.138   0.137   0.139   0.138   0.136   0.136   0.135   0.135   0.135   0.133   0.131   0.137   0.140   0.142   0.149   0.144   0.140   0.141   0.144   0.147   0.144   0.139   0.136   0.134   0.131   0.135
    38.20    0.148   0.141   0.141   0.135   0.138   0.138   0.139   0.141   0.140   0.136   0.143   0.137   0.140   0.142   0.142   0.136   0.136   0.133   0.136   0.133   0.136   0.137   0.141   0.144   0.141   0.138   0.144   0.138   0.140   0.141   0.139   0.137   0.134   0.136   0.131
    33.55    0.146   0.146   0.140   0.139   0.133   0.134   0.140   0.134   0.137   0.140   0.143   0.140   0.131   0.143   0.140   0.140   0.134   0.133   0.131   0.133   0.138   0.135   0.140   0.142   0.142   0.145   0.142   0.140   0.145   0.140   0.140   0.140   0.139   0.141   0.134
    28.90    0.145   0.141   0.139   0.135   0.137   0.140   0.139   0.135   0.135   0.142   0.141   0.138   0.139   0.138   0.140   0.134   0.136   0.139   0.134   0.134   0.136   0.137   0.142   0.138   0.140   0.145   0.144   0.140   0.142   0.137   0.133   0.131   0.138   0.137   0.135
    24.25    0.141   0.141   0.143   0.140   0.137   0.141   0.139   0.137   0.143   0.141   0.144   0.141   0.139   0.131   0.133   0.133   0.136   0.136   0.135   0.137   0.137   0.137   0.139   0.136   0.144   0.145   0.143   0.143   0.141   0.134   0.139   0.133   0.140   0.135   0.134
    19.60    0.143   0.142   0.144   0.137   0.135   0.140   0.137   0.137   0.139   0.138   0.134   0.137   0.136   0.138   0.133   0.135   0.135   0.132   0.131   0.137   0.142   0.139   0.138   0.140   0.141   0.141   0.143   0.136   0.133   0.132   0.138   0.138   0.137   0.141   0.135
    14.95    0.143   0.144   0.138   0.140   0.139   0.141   0.138   0.138   0.142   0.135   0.134   0.131   0.140   0.137   0.138   0.143   0.137   0.136   0.138   0.143   0.145   0.138   0.141   0.139   0.139   0.138   0.139   0.134   0.133   0.135   0.139   0.137   0.139   0.142   0.137
    10.30    0.144   0.142   0.139   0.139   0.140   0.137   0.136   0.138   0.138   0.133   0.136   0.131   0.136   0.140   0.137   0.142   0.142   0.137   0.141   0.142   0.145   0.144   0.138   0.138   0.137   0.134   0.137   0.135   0.133   0.135   0.140   0.136   0.140   0.143   0.139
     5.65    0.143   0.141   0.139   0.140   0.135   0.133   0.132   0.133   0.136   0.135   0.135   0.142   0.144   0.141   0.141   0.135   0.140   0.138   0.138   0.146   0.139   0.139   0.136   0.138   0.137   0.142   0.140   0.138   0.141   0.139   0.142   0.136   0.136   0.140   0.141
     1.00    0.140   0.141   0.144   0.143   0.137   0.134   0.130   0.133   0.137   0.140   0.140   0.143   0.144   0.139   0.144   0.142   0.143   0.142   0.148   0.142   0.137   0.136   0.136   0.140   0.138   0.141   0.137   0.140   0.145   0.143   0.139   0.139   0.139   0.145   0.140

   Mean standard deviation across all grid points:
      u component:    0.283 m/s
      v component:    0.221 m/s
      w component:    0.139 m/s


U-component (X) statistics from the interpolated hub point:

   Mean =   9.9913 m/s
   TI   =   3.1216 %


Processing complete.  5377.4 CPU seconds used.
