
This summary file was generated by TurbSim (from OpenFAST-v3.5.3) on 20-Apr-2025 at 00:19:00.


Runtime Options:

1341164796  Random seed #1
    RANLUX  Type of random number generator
         F  Output binary HH turbulence parameters?
         F  Output formatted turbulence parameters?
         F  Output AeroDyn HH files?
         T  Output AeroDyn FF files?
         F  Output BLADED FF files?
         F  Output tower data?
         F  Output HAWC FF files?
         F  Output formatted FF files?
         T  Output coherent turbulence time step file?
 0 -  NONE  IEC turbulence models scaled to exact specified standard deviation


Turbine/Model Specifications:

        39  Vertical grid-point matrix dimension
       193  Horizontal grid-point matrix dimension
     0.250  Time step [seconds]
   900.000  Analysis time [seconds]
   900.000  Usable output time [seconds]
   177.700  Hub height [m]
   353.400  Grid height [m]
  1785.600  Grid width [m]
     0.000  Vertical flow angle [degrees]
     0.000  Horizontal flow angle [degrees]


Meteorological Boundary Conditions:

    IECKAI  IEC Kaimal spectral model
         1  IEC standard: IEC 61400-1 Ed. 3: 2005
     5.000  Percent turbulence intensity, IEC 61400-1 Ed. 3: 2005
       NTM  IEC Normal Turbulence Model
       N/A  IEC Extreme Turbulence Model (ETM) "c" parameter [m/s]
       USR  Wind profile type
    90.000  Reference height [m]
       N/A  Reference wind speed [m/s]
       N/A  Jet height [m]
       N/A  Power law exponent
     0.030  Surface roughness length [m]


Non-IEC Meteorological Boundary Conditions:

       N/A  Site latitude [degrees]
       N/A  Gradient Richardson number
       N/A  Friction or shear velocity [m/s]
       N/A  Mixing layer depth [m]
       N/A  Mean hub u'w' Reynolds stress
       N/A  Mean hub u'v' Reynolds stress
       N/A  Mean hub v'w' Reynolds stress


Spatial Coherence Models:

       IEC  u-component coherence model
       IEC  v-component coherence model
       IEC  w-component coherence model
(   12.000, 0.353E-03)  u-component coherence parameters
(   12.000, 0.353E-03)  v-component coherence parameters
(   12.000, 0.353E-03)  w-component coherence parameters
       N/A  Coherence exponent


User-Defined Profiles:

  Height   Wind Speed   Horizontal Angle
   (m)        (m/s)          (deg)      
  ------   ----------   ----------------
  353.40      10.00         318.19
  334.80      10.00         321.14
  316.20      10.00         324.10
  297.60      10.00         327.05
  279.00      10.00         330.00
  260.40      10.00         332.95
  241.80      10.00         335.90
  223.20      10.00         338.86
  204.60      10.00         341.81
  186.00      10.00         344.76
  167.40      10.00         347.71
  148.80      10.00         350.67
  130.20      10.00         353.62
  111.60      10.00         356.57
   93.00      10.00         359.52
   74.40      10.00           2.48
   55.80      10.00           5.43
   37.20      10.00           8.38
   18.60      10.00          11.33
    0.00      10.00          14.29


You have requested that the following file(s) be generated:

   /kfs3/scratch/agupta/Projects/RL_Incubator/FinalRuns_Veer/Seed4/./FFSim_Seed4/Cond00_v10.0_PL0.12_TI5.0/Seed_8/Low.bts (AeroDyn/TurbSim full-field wind file)


Turbulence Simulation Scaling Parameter Summary:

   Turbulence model used                            =  IEC Kaimal
   Turbulence characteristic                        =  User-specified
   IEC standard                                     =  IEC 61400-1 Ed. 3: 2005
   Mean wind speed at hub height                    =   10.000 m/s
   Characteristic value of standard deviation       =    0.500 m/s
   Turbulence scale                                 =   42.000 m
   u-component integral scale                       =  340.200 m
   Coherency scale                                  =  340.200 m
   Characteristic value of hub turbulence intensity =    5.000%
   Gradient Richardson number                       =    0.000

   Wind profile type                                =  Linear interpolation of user-defined profile
   Equivalent power law exponent (upper rotor disk) =    0.000
   Mean shear across rotor disk                     =    0.000 (m/s)/m
   Assumed rotor diameter                           =  353.400 m
   Surface roughness length                         =    0.030 m

   Nyquist frequency of turbulent wind field        =    2.000 Hz

   Number of time steps in the FFT                  =     3600
   Number of time steps output                      =     3600
   Number of points simulated                       =     7527


Mean Flow Angles:

   Vertical   =   0.0 degrees
   Horizontal =   0.0 degrees

Mean Wind Speed Profile:

   Height    Wind Speed   Horizontal Angle  Vertical Angle  U-comp (X)   V-comp (Y)   W-comp (Z)
     (m)        (m/s)         (degrees)       (degrees)       (m/s)        (m/s)        (m/s)   
   ------    ----------   ----------------  --------------  ----------   ----------   ----------
    354.4       10.00          318.19            0.00          7.45        -6.67         0.00
    345.1       10.00          319.51            0.00          7.60        -6.49         0.00
    335.8       10.00          320.98            0.00          7.77        -6.30         0.00
    326.5       10.00          322.46            0.00          7.93        -6.09         0.00
    317.2       10.00          323.94            0.00          8.08        -5.89         0.00
    307.9       10.00          325.41            0.00          8.23        -5.68         0.00
    298.6       10.00          326.89            0.00          8.38        -5.46         0.00
    289.3       10.00          328.37            0.00          8.51        -5.25         0.00
    280.0       10.00          329.84            0.00          8.65        -5.02         0.00
    270.7       10.00          331.32            0.00          8.77        -4.80         0.00
    261.4       10.00          332.79            0.00          8.89        -4.57         0.00
    252.1       10.00          334.27            0.00          9.01        -4.34         0.00
    242.8       10.00          335.75            0.00          9.12        -4.11         0.00
    233.5       10.00          337.22            0.00          9.22        -3.87         0.00
    224.2       10.00          338.70            0.00          9.32        -3.63         0.00
    214.9       10.00          340.17            0.00          9.41        -3.39         0.00
    205.6       10.00          341.65            0.00          9.49        -3.15         0.00
    196.3       10.00          343.13            0.00          9.57        -2.90         0.00
    187.0       10.00          344.60            0.00          9.64        -2.66         0.00
    177.7       10.00          346.08            0.00          9.71        -2.41         0.00
    168.4       10.00          347.56            0.00          9.77        -2.15         0.00
    159.1       10.00          349.03            0.00          9.82        -1.90         0.00
    149.8       10.00          350.51            0.00          9.86        -1.65         0.00
    140.5       10.00          351.98            0.00          9.90        -1.39         0.00
    131.2       10.00          353.46            0.00          9.93        -1.14         0.00
    121.9       10.00          354.94            0.00          9.96        -0.88         0.00
    112.6       10.00          356.41            0.00          9.98        -0.63         0.00
    103.3       10.00          357.89            0.00          9.99        -0.37         0.00
     94.0       10.00          359.37            0.00         10.00        -0.11         0.00
     84.7       10.00          360.84            0.00         10.00         0.15         0.00
     75.4       10.00          362.32            0.00          9.99         0.40         0.00
     66.1       10.00            3.79            0.00          9.98         0.66         0.00
     56.8       10.00            5.27            0.00          9.96         0.92         0.00
     47.5       10.00            6.75            0.00          9.93         1.17         0.00
     38.2       10.00            8.22            0.00          9.90         1.43         0.00
     28.9       10.00            9.70            0.00          9.86         1.68         0.00
     19.6       10.00           11.17            0.00          9.81         1.94         0.00
     10.3       10.00           12.65            0.00          9.76         2.19         0.00
      1.0       10.00           14.13            0.00          9.70         2.44         0.00


Harvested Random Seeds after Generation of the Random Numbers:

    377667225 K 1
            0 K 2


Hub-Height Simulated Turbulence Statistical Summary:

   Type of Wind        Min (m/s)   Mean (m/s)    Max (m/s)  Sigma (m/s)       TI (%)
   ----------------    ---------   ----------    ---------  -----------       ------
   Longitudinal (u)         8.73        10.00        11.67        0.453        4.528
   Lateral (v)             -1.35         0.00         1.55        0.423        4.234
   Vertical (w)            -0.86        -0.00         0.86        0.238        2.382
   U component              8.36         9.71        11.43        0.429        4.417
   V component             -3.81        -2.41        -1.07        0.448        4.613
   W component             -0.86        -0.00         0.86        0.238        2.454
   Horizontal (U&V)         8.74        10.01        11.67        0.454        4.539
   Total                    8.74        10.01        11.67        0.454        4.536

                       Min Reynolds     Mean Reynolds    Max Reynolds    Correlation
   Product             Stress (m/s)^2   Stress (m/s)^2   Stress (m/s)^2  Coefficient
   ----------------    --------------   --------------   --------------  -----------
   u'w'                     -0.558             0.001             0.688         0.007
   u'v'                     -1.113            -0.042             1.246        -0.220
   v'w'                     -0.572            -0.001             0.711        -0.005


   Friction Velocity (Ustar)  =      0.028 m/s
   Maximum Instantaneous TKE  =      1.543 (m/s)^2
   Maximum Instantaneous CTKE =      0.642 (m/s)^2


Grid Point Variance Summary:

   Y-coord -892.80 -883.50 -874.20 -864.90 -855.60 -846.30 -837.00 -827.70 -818.40 -809.10 -799.80 -790.50 -781.20 -771.90 -762.60 -753.30 -744.00 -734.70 -725.40 -716.10 -706.80 -697.50 -688.20 -678.90 -669.60 -660.30 -651.00 -641.70 -632.40 -623.10 -613.80 -604.50 -595.20 -585.90 -576.60 -567.30 -558.00 -548.70 -539.40 -530.10 -520.80 -511.50 -502.20 -492.90 -483.60 -474.30 -465.00 -455.70 -446.40 -437.10 -427.80 -418.50 -409.20 -399.90 -390.60 -381.30 -372.00 -362.70 -353.40 -344.10 -334.80 -325.50 -316.20 -306.90 -297.60 -288.30 -279.00 -269.70 -260.40 -251.10 -241.80 -232.50 -223.20 -213.90 -204.60 -195.30 -186.00 -176.70 -167.40 -158.10 -148.80 -139.50 -130.20 -120.90 -111.60 -102.30  -93.00  -83.70  -74.40  -65.10  -55.80  -46.50  -37.20  -27.90  -18.60   -9.30    0.00    9.30   18.60   27.90   37.20   46.50   55.80   65.10   74.40   83.70   93.00  102.30  111.60  120.90  130.20  139.50  148.80  158.10  167.40  176.70  186.00  195.30  204.60  213.90  223.20  232.50  241.80  251.10  260.40  269.70  279.00  288.30  297.60  306.90  316.20  325.50  334.80  344.10  353.40  362.70  372.00  381.30  390.60  399.90  409.20  418.50  427.80  437.10  446.40  455.70  465.00  474.30  483.60  492.90  502.20  511.50  520.80  530.10  539.40  548.70  558.00  567.30  576.60  585.90  595.20  604.50  613.80  623.10  632.40  641.70  651.00  660.30  669.60  678.90  688.20  697.50  706.80  716.10  725.40  734.70  744.00  753.30  762.60  771.90  781.20  790.50  799.80  809.10  818.40  827.70  837.00  846.30  855.60  864.90  874.20  883.50  892.80

   Height   Standard deviation at grid points for the u component:
   354.40    0.404   0.402   0.408   0.382   0.392   0.414   0.424   0.428   0.407   0.406   0.400   0.415   0.427   0.451   0.467   0.424   0.387   0.441   0.448   0.439   0.493   0.513   0.538   0.527   0.511   0.502   0.497   0.490   0.462   0.457   0.466   0.513   0.537   0.544   0.562   0.543   0.513   0.487   0.466   0.450   0.473   0.485   0.504   0.493   0.450   0.461   0.470   0.470   0.467   0.453   0.491   0.506   0.490   0.495   0.487   0.442   0.430   0.409   0.415   0.423   0.430   0.424   0.427   0.406   0.422   0.425   0.427   0.428   0.444   0.449   0.431   0.405   0.413   0.452   0.436   0.419   0.395   0.379   0.406   0.406   0.396   0.397   0.380   0.374   0.374   0.399   0.403   0.413   0.428   0.392   0.413   0.425   0.445   0.484   0.505   0.528   0.537   0.531   0.540   0.547   0.581   0.530   0.524   0.500   0.486   0.461   0.459   0.482   0.455   0.418   0.407   0.421   0.396   0.368   0.399   0.372   0.386   0.438   0.440   0.452   0.442   0.451   0.444   0.424   0.420   0.457   0.484   0.458   0.473   0.424   0.449   0.446   0.459   0.419   0.449   0.438   0.425   0.439   0.429   0.470   0.477   0.473   0.465   0.411   0.402   0.455   0.452   0.470   0.444   0.458   0.445   0.447   0.461   0.420   0.432   0.462   0.453   0.449   0.467   0.465   0.502   0.480   0.447   0.442   0.450   0.468   0.449   0.430   0.419   0.428   0.440   0.480   0.472   0.499   0.509   0.517   0.506   0.530   0.523   0.524   0.485   0.471   0.497   0.492   0.531   0.548   0.526   0.533   0.540   0.527   0.525   0.510   0.484
   345.10    0.429   0.411   0.401   0.371   0.401   0.391   0.424   0.419   0.402   0.389   0.397   0.449   0.445   0.469   0.433   0.405   0.429   0.473   0.452   0.492   0.523   0.547   0.540   0.493   0.483   0.489   0.515   0.486   0.450   0.449   0.469   0.507   0.562   0.519   0.526   0.520   0.498   0.468   0.500   0.471   0.485   0.464   0.482   0.467   0.462   0.473   0.485   0.481   0.448   0.485   0.508   0.547   0.552   0.509   0.461   0.455   0.406   0.407   0.406   0.397   0.414   0.387   0.407   0.402   0.403   0.422   0.436   0.464   0.473   0.493   0.451   0.438   0.443   0.447   0.429   0.400   0.415   0.414   0.436   0.432   0.415   0.424   0.394   0.376   0.394   0.370   0.394   0.414   0.394   0.386   0.409   0.445   0.445   0.447   0.511   0.522   0.517   0.509   0.525   0.529   0.548   0.543   0.514   0.496   0.493   0.498   0.476   0.439   0.422   0.424   0.425   0.409   0.372   0.372   0.384   0.384   0.369   0.393   0.416   0.408   0.428   0.431   0.456   0.462   0.475   0.474   0.504   0.499   0.490   0.468   0.451   0.436   0.435   0.494   0.464   0.483   0.497   0.469   0.450   0.440   0.472   0.471   0.478   0.434   0.447   0.456   0.446   0.436   0.411   0.415   0.425   0.376   0.417   0.417   0.410   0.436   0.454   0.436   0.429   0.441   0.472   0.460   0.447   0.420   0.448   0.461   0.454   0.428   0.440   0.435   0.450   0.454   0.467   0.475   0.496   0.496   0.511   0.538   0.515   0.535   0.492   0.470   0.461   0.488   0.517   0.523   0.505   0.518   0.521   0.485   0.503   0.459   0.465
   335.80    0.424   0.410   0.379   0.398   0.378   0.408   0.391   0.410   0.391   0.392   0.418   0.435   0.423   0.437   0.457   0.451   0.459   0.458   0.464   0.474   0.492   0.540   0.524   0.490   0.514   0.478   0.484   0.442   0.434   0.440   0.447   0.472   0.532   0.511   0.505   0.496   0.492   0.468   0.509   0.467   0.460   0.447   0.478   0.494   0.455   0.470   0.476   0.469   0.470   0.483   0.491   0.547   0.536   0.499   0.457   0.412   0.428   0.411   0.435   0.421   0.401   0.395   0.415   0.444   0.439   0.440   0.453   0.469   0.464   0.478   0.497   0.425   0.436   0.448   0.451   0.437   0.430   0.427   0.464   0.443   0.420   0.398   0.386   0.406   0.402   0.387   0.386   0.386   0.380   0.406   0.433   0.420   0.466   0.476   0.501   0.499   0.506   0.506   0.544   0.533   0.541   0.534   0.487   0.485   0.498   0.472   0.459   0.444   0.383   0.382   0.394   0.391   0.389   0.386   0.386   0.402   0.394   0.393   0.391   0.436   0.435   0.407   0.438   0.437   0.475   0.463   0.462   0.470   0.465   0.460   0.461   0.455   0.451   0.517   0.527   0.508   0.475   0.463   0.467   0.461   0.465   0.468   0.479   0.474   0.465   0.435   0.423   0.404   0.421   0.401   0.388   0.367   0.380   0.397   0.409   0.427   0.445   0.425   0.403   0.415   0.436   0.440   0.454   0.425   0.459   0.468   0.464   0.454   0.427   0.420   0.457   0.451   0.465   0.466   0.449   0.488   0.503   0.523   0.487   0.486   0.478   0.461   0.418   0.439   0.480   0.499   0.503   0.492   0.493   0.471   0.486   0.453   0.419
   326.50    0.433   0.409   0.375   0.351   0.379   0.370   0.361   0.392   0.393   0.421   0.447   0.459   0.457   0.451   0.460   0.447   0.447   0.488   0.486   0.487   0.484   0.514   0.534   0.502   0.504   0.500   0.485   0.472   0.481   0.436   0.419   0.463   0.487   0.500   0.497   0.464   0.482   0.454   0.474   0.467   0.440   0.464   0.466   0.497   0.477   0.459   0.443   0.459   0.467   0.473   0.481   0.519   0.503   0.447   0.416   0.406   0.415   0.430   0.435   0.452   0.461   0.444   0.432   0.444   0.457   0.455   0.453   0.482   0.486   0.472   0.483   0.477   0.429   0.445   0.450   0.459   0.438   0.439   0.451   0.454   0.378   0.362   0.358   0.397   0.378   0.395   0.363   0.390   0.402   0.413   0.439   0.452   0.451   0.472   0.475   0.479   0.486   0.497   0.525   0.554   0.533   0.532   0.491   0.486   0.507   0.511   0.465   0.473   0.421   0.393   0.380   0.397   0.394   0.386   0.380   0.374   0.382   0.389   0.404   0.458   0.462   0.452   0.460   0.433   0.454   0.472   0.478   0.483   0.486   0.476   0.478   0.462   0.486   0.521   0.538   0.495   0.493   0.488   0.463   0.458   0.502   0.504   0.465   0.457   0.420   0.397   0.403   0.416   0.392   0.401   0.410   0.389   0.403   0.422   0.406   0.422   0.449   0.427   0.418   0.444   0.415   0.405   0.465   0.437   0.453   0.476   0.483   0.444   0.455   0.429   0.432   0.443   0.475   0.465   0.505   0.525   0.513   0.499   0.487   0.460   0.477   0.479   0.484   0.479   0.482   0.478   0.500   0.491   0.496   0.445   0.413   0.403   0.407
   317.20    0.426   0.438   0.410   0.381   0.368   0.412   0.411   0.420   0.440   0.503   0.477   0.498   0.469   0.478   0.472   0.470   0.447   0.483   0.471   0.502   0.482   0.510   0.518   0.497   0.491   0.471   0.468   0.462   0.468   0.471   0.455   0.444   0.476   0.467   0.455   0.473   0.436   0.466   0.464   0.465   0.438   0.431   0.471   0.498   0.483   0.467   0.441   0.455   0.433   0.436   0.492   0.511   0.482   0.412   0.413   0.410   0.423   0.433   0.456   0.496   0.472   0.439   0.438   0.419   0.452   0.443   0.444   0.449   0.481   0.481   0.497   0.466   0.471   0.444   0.432   0.435   0.451   0.481   0.447   0.434   0.401   0.380   0.380   0.382   0.359   0.361   0.375   0.415   0.400   0.406   0.420   0.458   0.447   0.485   0.459   0.457   0.463   0.505   0.537   0.491   0.497   0.538   0.497   0.503   0.533   0.494   0.490   0.460   0.482   0.446   0.413   0.396   0.404   0.398   0.377   0.379   0.416   0.408   0.405   0.433   0.433   0.458   0.455   0.444   0.456   0.490   0.510   0.500   0.518   0.496   0.529   0.528   0.516   0.520   0.529   0.533   0.513   0.493   0.466   0.476   0.492   0.480   0.457   0.413   0.420   0.409   0.432   0.423   0.388   0.434   0.439   0.459   0.426   0.399   0.403   0.410   0.434   0.445   0.466   0.459   0.459   0.490   0.498   0.480   0.452   0.461   0.443   0.446   0.448   0.436   0.442   0.466   0.502   0.489   0.496   0.503   0.471   0.517   0.471   0.453   0.476   0.474   0.466   0.497   0.499   0.486   0.473   0.493   0.472   0.449   0.409   0.391   0.414
   307.90    0.437   0.438   0.421   0.416   0.386   0.401   0.417   0.425   0.458   0.505   0.473   0.483   0.468   0.459   0.489   0.483   0.483   0.479   0.499   0.500   0.504   0.493   0.506   0.485   0.451   0.457   0.457   0.452   0.479   0.506   0.468   0.435   0.473   0.479   0.468   0.443   0.462   0.498   0.472   0.452   0.442   0.449   0.430   0.446   0.482   0.436   0.445   0.425   0.434   0.434   0.433   0.418   0.480   0.417   0.414   0.397   0.417   0.450   0.467   0.454   0.474   0.445   0.429   0.424   0.452   0.459   0.462   0.428   0.455   0.477   0.481   0.498   0.487   0.456   0.436   0.422   0.448   0.419   0.431   0.400   0.389   0.373   0.375   0.363   0.360   0.366   0.416   0.423   0.418   0.420   0.423   0.438   0.449   0.443   0.439   0.462   0.459   0.498   0.506   0.511   0.540   0.500   0.500   0.492   0.507   0.477   0.467   0.463   0.470   0.474   0.424   0.414   0.405   0.383   0.385   0.383   0.426   0.409   0.404   0.433   0.448   0.469   0.504   0.495   0.497   0.475   0.490   0.523   0.534   0.527   0.558   0.561   0.565   0.545   0.495   0.516   0.515   0.503   0.437   0.493   0.521   0.474   0.482   0.447   0.440   0.455   0.432   0.433   0.439   0.463   0.455   0.449   0.447   0.417   0.408   0.444   0.462   0.456   0.458   0.459   0.454   0.496   0.490   0.497   0.461   0.427   0.438   0.448   0.456   0.453   0.468   0.470   0.495   0.506   0.500   0.497   0.483   0.519   0.487   0.491   0.459   0.444   0.494   0.492   0.468   0.454   0.459   0.447   0.433   0.432   0.385   0.413   0.428
   298.60    0.426   0.431   0.426   0.414   0.394   0.400   0.414   0.418   0.454   0.459   0.496   0.498   0.469   0.466   0.463   0.452   0.447   0.455   0.472   0.476   0.494   0.464   0.456   0.470   0.423   0.468   0.465   0.467   0.467   0.490   0.453   0.447   0.444   0.477   0.464   0.427   0.477   0.459   0.476   0.465   0.450   0.451   0.445   0.437   0.428   0.430   0.421   0.438   0.412   0.453   0.446   0.474   0.466   0.416   0.429   0.409   0.423   0.433   0.432   0.452   0.457   0.426   0.434   0.437   0.477   0.490   0.458   0.470   0.451   0.452   0.474   0.487   0.477   0.479   0.440   0.431   0.400   0.406   0.416   0.391   0.396   0.356   0.376   0.355   0.345   0.389   0.428   0.427   0.432   0.434   0.446   0.433   0.422   0.416   0.431   0.477   0.480   0.500   0.496   0.525   0.508   0.524   0.501   0.480   0.496   0.513   0.525   0.486   0.462   0.434   0.414   0.440   0.434   0.439   0.416   0.402   0.438   0.419   0.428   0.445   0.459   0.458   0.498   0.492   0.476   0.443   0.499   0.505   0.519   0.517   0.540   0.563   0.540   0.540   0.511   0.491   0.487   0.488   0.473   0.520   0.539   0.507   0.501   0.489   0.463   0.452   0.441   0.468   0.459   0.444   0.485   0.503   0.457   0.413   0.429   0.452   0.449   0.472   0.469   0.481   0.484   0.488   0.497   0.460   0.464   0.419   0.394   0.423   0.427   0.467   0.458   0.469   0.467   0.458   0.482   0.500   0.497   0.484   0.502   0.490   0.473   0.441   0.490   0.481   0.495   0.456   0.434   0.414   0.400   0.400   0.398   0.429   0.434
   289.30    0.477   0.465   0.450   0.439   0.427   0.413   0.415   0.425   0.434   0.452   0.464   0.473   0.446   0.415   0.408   0.437   0.442   0.458   0.424   0.473   0.465   0.436   0.450   0.463   0.452   0.467   0.475   0.455   0.452   0.450   0.454   0.447   0.479   0.482   0.484   0.448   0.485   0.481   0.485   0.494   0.507   0.469   0.437   0.415   0.411   0.422   0.428   0.432   0.425   0.436   0.450   0.449   0.459   0.441   0.425   0.422   0.424   0.427   0.426   0.429   0.432   0.437   0.474   0.471   0.455   0.473   0.481   0.467   0.452   0.451   0.432   0.472   0.440   0.425   0.444   0.424   0.414   0.408   0.426   0.393   0.380   0.375   0.384   0.366   0.359   0.403   0.451   0.437   0.448   0.448   0.431   0.426   0.422   0.395   0.403   0.459   0.501   0.496   0.500   0.495   0.498   0.544   0.525   0.532   0.506   0.553   0.539   0.508   0.468   0.470   0.442   0.414   0.437   0.436   0.416   0.406   0.416   0.443   0.454   0.419   0.453   0.461   0.476   0.509   0.477   0.472   0.509   0.497   0.525   0.543   0.527   0.570   0.515   0.524   0.519   0.522   0.494   0.505   0.504   0.514   0.490   0.477   0.493   0.446   0.438   0.440   0.474   0.418   0.469   0.442   0.465   0.486   0.471   0.467   0.429   0.458   0.436   0.484   0.470   0.486   0.469   0.480   0.480   0.441   0.450   0.438   0.406   0.385   0.420   0.435   0.435   0.470   0.454   0.456   0.473   0.476   0.452   0.474   0.490   0.463   0.483   0.447   0.471   0.480   0.479   0.474   0.471   0.447   0.422   0.396   0.409   0.398   0.429
   280.00    0.468   0.469   0.442   0.459   0.433   0.448   0.457   0.439   0.416   0.447   0.459   0.474   0.456   0.452   0.458   0.431   0.448   0.478   0.467   0.477   0.445   0.423   0.421   0.415   0.458   0.444   0.449   0.473   0.470   0.452   0.427   0.479   0.483   0.487   0.472   0.478   0.475   0.500   0.501   0.498   0.474   0.442   0.422   0.392   0.403   0.417   0.435   0.421   0.431   0.436   0.470   0.462   0.423   0.411   0.411   0.409   0.401   0.389   0.417   0.422   0.432   0.425   0.450   0.489   0.486   0.485   0.498   0.481   0.434   0.428   0.422   0.461   0.446   0.433   0.407   0.416   0.416   0.401   0.407   0.392   0.395   0.380   0.348   0.374   0.385   0.392   0.423   0.442   0.414   0.429   0.418   0.436   0.441   0.428   0.454   0.459   0.480   0.480   0.506   0.502   0.503   0.530   0.518   0.476   0.492   0.543   0.565   0.527   0.475   0.455   0.450   0.458   0.443   0.458   0.455   0.474   0.454   0.497   0.474   0.473   0.459   0.443   0.472   0.449   0.472   0.520   0.552   0.555   0.519   0.531   0.557   0.571   0.541   0.507   0.530   0.535   0.499   0.490   0.499   0.503   0.435   0.456   0.465   0.434   0.428   0.448   0.450   0.432   0.435   0.440   0.470   0.520   0.530   0.497   0.472   0.454   0.447   0.462   0.500   0.506   0.477   0.472   0.482   0.437   0.428   0.435   0.415   0.416   0.401   0.438   0.446   0.445   0.436   0.431   0.428   0.420   0.446   0.450   0.447   0.455   0.456   0.457   0.473   0.451   0.468   0.461   0.484   0.476   0.462   0.456   0.402   0.441   0.422
   270.70    0.445   0.478   0.492   0.507   0.476   0.492   0.494   0.487   0.460   0.459   0.463   0.457   0.487   0.487   0.461   0.432   0.477   0.496   0.450   0.453   0.437   0.399   0.391   0.409   0.450   0.444   0.418   0.452   0.479   0.428   0.457   0.478   0.502   0.510   0.488   0.470   0.479   0.500   0.521   0.459   0.455   0.426   0.417   0.408   0.389   0.408   0.438   0.447   0.438   0.442   0.466   0.435   0.430   0.424   0.430   0.417   0.423   0.426   0.419   0.383   0.400   0.404   0.429   0.455   0.473   0.456   0.477   0.458   0.449   0.442   0.435   0.470   0.452   0.441   0.409   0.423   0.417   0.436   0.448   0.430   0.403   0.404   0.407   0.391   0.363   0.399   0.418   0.415   0.410   0.436   0.450   0.409   0.441   0.432   0.413   0.457   0.462   0.495   0.503   0.542   0.525   0.498   0.498   0.486   0.505   0.511   0.553   0.527   0.477   0.477   0.491   0.455   0.460   0.468   0.438   0.484   0.520   0.504   0.503   0.455   0.446   0.457   0.436   0.426   0.445   0.496   0.533   0.558   0.542   0.525   0.534   0.563   0.538   0.494   0.502   0.508   0.507   0.503   0.487   0.469   0.450   0.438   0.457   0.447   0.429   0.419   0.429   0.439   0.414   0.428   0.485   0.504   0.514   0.465   0.479   0.439   0.462   0.470   0.495   0.487   0.443   0.439   0.426   0.403   0.419   0.431   0.406   0.423   0.445   0.443   0.440   0.414   0.448   0.420   0.413   0.425   0.421   0.424   0.408   0.435   0.455   0.415   0.459   0.444   0.496   0.479   0.489   0.454   0.458   0.410   0.429   0.431   0.417
   261.40    0.434   0.469   0.503   0.461   0.472   0.488   0.476   0.471   0.471   0.459   0.476   0.477   0.508   0.477   0.484   0.469   0.485   0.493   0.451   0.449   0.413   0.420   0.420   0.416   0.441   0.427   0.420   0.449   0.444   0.452   0.434   0.455   0.471   0.456   0.469   0.452   0.459   0.468   0.492   0.423   0.417   0.431   0.413   0.442   0.399   0.408   0.434   0.445   0.461   0.418   0.412   0.421   0.428   0.425   0.429   0.405   0.407   0.408   0.403   0.405   0.417   0.421   0.414   0.430   0.464   0.467   0.436   0.450   0.443   0.465   0.460   0.452   0.462   0.457   0.425   0.407   0.411   0.442   0.453   0.433   0.433   0.419   0.427   0.414   0.418   0.435   0.425   0.405   0.437   0.451   0.428   0.441   0.419   0.399   0.407   0.424   0.457   0.490   0.488   0.483   0.503   0.451   0.470   0.479   0.488   0.492   0.498   0.480   0.485   0.461   0.482   0.449   0.469   0.510   0.474   0.461   0.513   0.527   0.518   0.485   0.483   0.432   0.455   0.429   0.456   0.479   0.467   0.537   0.526   0.523   0.543   0.542   0.521   0.489   0.477   0.482   0.492   0.496   0.482   0.473   0.441   0.447   0.459   0.446   0.430   0.416   0.440   0.420   0.453   0.427   0.448   0.470   0.475   0.451   0.428   0.471   0.460   0.471   0.452   0.465   0.423   0.400   0.391   0.403   0.424   0.432   0.449   0.444   0.471   0.439   0.429   0.403   0.417   0.392   0.403   0.420   0.403   0.433   0.397   0.408   0.433   0.445   0.451   0.431   0.466   0.464   0.455   0.432   0.464   0.415   0.425   0.386   0.391
   252.10    0.452   0.494   0.464   0.439   0.484   0.500   0.488   0.463   0.454   0.510   0.514   0.497   0.522   0.521   0.478   0.476   0.457   0.463   0.450   0.443   0.456   0.455   0.416   0.441   0.422   0.426   0.440   0.457   0.470   0.430   0.438   0.473   0.489   0.455   0.440   0.453   0.444   0.448   0.466   0.433   0.426   0.434   0.436   0.434   0.402   0.431   0.427   0.463   0.470   0.409   0.371   0.389   0.415   0.436   0.430   0.407   0.414   0.433   0.419   0.419   0.443   0.447   0.422   0.432   0.435   0.455   0.454   0.454   0.447   0.463   0.472   0.448   0.420   0.432   0.439   0.423   0.427   0.433   0.437   0.440   0.420   0.409   0.393   0.389   0.436   0.460   0.456   0.464   0.465   0.447   0.432   0.446   0.441   0.435   0.433   0.407   0.445   0.485   0.487   0.471   0.471   0.460   0.437   0.460   0.485   0.495   0.506   0.498   0.490   0.461   0.507   0.486   0.478   0.503   0.502   0.492   0.527   0.573   0.564   0.499   0.500   0.473   0.492   0.454   0.468   0.502   0.496   0.521   0.508   0.525   0.515   0.531   0.548   0.483   0.478   0.464   0.474   0.470   0.484   0.450   0.471   0.424   0.458   0.479   0.439   0.415   0.425   0.421   0.403   0.411   0.437   0.433   0.445   0.445   0.457   0.450   0.471   0.441   0.456   0.429   0.388   0.388   0.394   0.415   0.425   0.427   0.461   0.471   0.438   0.444   0.401   0.436   0.421   0.367   0.417   0.428   0.429   0.468   0.431   0.441   0.436   0.423   0.441   0.444   0.452   0.443   0.441   0.431   0.444   0.443   0.439   0.405   0.393
   242.80    0.482   0.495   0.492   0.485   0.481   0.502   0.470   0.478   0.472   0.499   0.506   0.500   0.494   0.491   0.470   0.458   0.460   0.435   0.438   0.425   0.437   0.430   0.441   0.466   0.432   0.406   0.438   0.442   0.463   0.444   0.466   0.458   0.478   0.428   0.461   0.450   0.438   0.482   0.452   0.456   0.424   0.427   0.429   0.423   0.406   0.400   0.414   0.464   0.450   0.429   0.393   0.385   0.409   0.441   0.440   0.413   0.411   0.425   0.435   0.426   0.461   0.472   0.435   0.462   0.465   0.477   0.495   0.473   0.486   0.456   0.500   0.442   0.448   0.433   0.459   0.453   0.452   0.425   0.445   0.435   0.421   0.381   0.415   0.437   0.440   0.469   0.465   0.487   0.483   0.453   0.443   0.457   0.431   0.444   0.426   0.460   0.452   0.462   0.461   0.467   0.495   0.472   0.476   0.441   0.470   0.488   0.478   0.480   0.509   0.514   0.501   0.497   0.505   0.506   0.481   0.483   0.517   0.565   0.541   0.531   0.511   0.503   0.512   0.531   0.511   0.504   0.473   0.507   0.483   0.523   0.510   0.494   0.510   0.471   0.472   0.464   0.471   0.480   0.465   0.463   0.459   0.449   0.451   0.461   0.459   0.446   0.425   0.418   0.437   0.422   0.440   0.403   0.426   0.425   0.433   0.425   0.431   0.443   0.434   0.427   0.411   0.403   0.410   0.432   0.400   0.416   0.449   0.451   0.417   0.438   0.441   0.462   0.447   0.418   0.441   0.461   0.483   0.465   0.479   0.451   0.442   0.452   0.452   0.436   0.421   0.439   0.421   0.419   0.447   0.436   0.460   0.409   0.410
   233.50    0.477   0.479   0.464   0.475   0.452   0.477   0.476   0.461   0.475   0.511   0.483   0.471   0.491   0.508   0.481   0.503   0.437   0.403   0.410   0.407   0.412   0.445   0.457   0.466   0.463   0.433   0.424   0.452   0.472   0.482   0.461   0.469   0.465   0.462   0.438   0.425   0.432   0.464   0.453   0.460   0.431   0.423   0.402   0.415   0.402   0.411   0.443   0.422   0.461   0.405   0.404   0.405   0.413   0.414   0.412   0.413   0.417   0.425   0.463   0.471   0.460   0.445   0.448   0.475   0.498   0.501   0.504   0.474   0.464   0.464   0.461   0.461   0.470   0.453   0.466   0.420   0.444   0.434   0.468   0.459   0.431   0.449   0.451   0.463   0.469   0.460   0.472   0.489   0.477   0.439   0.467   0.460   0.462   0.448   0.446   0.459   0.447   0.416   0.433   0.448   0.434   0.437   0.445   0.431   0.456   0.478   0.469   0.471   0.477   0.502   0.510   0.480   0.498   0.488   0.498   0.481   0.515   0.547   0.523   0.537   0.508   0.523   0.516   0.536   0.525   0.498   0.464   0.503   0.479   0.516   0.530   0.508   0.492   0.472   0.475   0.469   0.465   0.468   0.449   0.458   0.453   0.431   0.429   0.452   0.436   0.447   0.425   0.428   0.423   0.413   0.393   0.407   0.421   0.425   0.447   0.399   0.408   0.396   0.428   0.438   0.404   0.403   0.414   0.409   0.416   0.425   0.451   0.466   0.407   0.413   0.431   0.452   0.438   0.441   0.437   0.440   0.447   0.449   0.476   0.437   0.432   0.411   0.454   0.463   0.426   0.410   0.404   0.411   0.436   0.423   0.416   0.412   0.426
   224.20    0.494   0.474   0.487   0.443   0.470   0.450   0.451   0.490   0.528   0.505   0.531   0.491   0.494   0.501   0.499   0.486   0.438   0.423   0.398   0.431   0.431   0.429   0.444   0.439   0.464   0.436   0.416   0.416   0.436   0.457   0.487   0.490   0.497   0.480   0.450   0.427   0.437   0.463   0.459   0.396   0.447   0.435   0.447   0.414   0.411   0.423   0.445   0.479   0.482   0.442   0.416   0.429   0.421   0.413   0.430   0.434   0.431   0.430   0.437   0.479   0.467   0.468   0.507   0.537   0.484   0.497   0.492   0.480   0.462   0.466   0.478   0.454   0.498   0.467   0.468   0.454   0.452   0.441   0.446   0.451   0.427   0.445   0.472   0.500   0.510   0.490   0.470   0.455   0.438   0.461   0.489   0.486   0.486   0.464   0.437   0.448   0.430   0.413   0.426   0.425   0.430   0.437   0.437   0.455   0.480   0.498   0.488   0.445   0.471   0.491   0.500   0.495   0.469   0.495   0.512   0.514   0.541   0.564   0.529   0.526   0.517   0.523   0.515   0.499   0.483   0.479   0.442   0.471   0.485   0.491   0.504   0.545   0.537   0.507   0.506   0.486   0.466   0.489   0.488   0.435   0.441   0.449   0.413   0.431   0.418   0.425   0.434   0.426   0.418   0.415   0.427   0.446   0.435   0.429   0.448   0.406   0.417   0.412   0.434   0.435   0.385   0.385   0.418   0.421   0.419   0.416   0.449   0.433   0.432   0.429   0.444   0.462   0.449   0.453   0.467   0.452   0.470   0.490   0.479   0.435   0.422   0.437   0.445   0.432   0.429   0.400   0.362   0.391   0.418   0.396   0.423   0.420   0.413
   214.90    0.481   0.459   0.465   0.483   0.445   0.420   0.462   0.469   0.509   0.505   0.524   0.501   0.505   0.499   0.511   0.477   0.485   0.459   0.432   0.443   0.426   0.424   0.435   0.448   0.452   0.475   0.442   0.428   0.459   0.467   0.474   0.497   0.483   0.464   0.461   0.457   0.434   0.464   0.462   0.423   0.457   0.422   0.442   0.445   0.399   0.439   0.482   0.527   0.458   0.470   0.472   0.482   0.443   0.416   0.412   0.426   0.463   0.464   0.491   0.469   0.487   0.505   0.542   0.519   0.475   0.460   0.478   0.454   0.483   0.483   0.494   0.471   0.495   0.475   0.477   0.476   0.478   0.486   0.425   0.424   0.420   0.464   0.459   0.484   0.460   0.439   0.423   0.436   0.400   0.435   0.454   0.479   0.479   0.486   0.475   0.420   0.424   0.437   0.421   0.445   0.433   0.401   0.426   0.434   0.438   0.463   0.477   0.470   0.466   0.469   0.482   0.510   0.471   0.481   0.483   0.482   0.517   0.514   0.555   0.547   0.518   0.525   0.503   0.524   0.495   0.456   0.462   0.481   0.473   0.460   0.541   0.538   0.533   0.540   0.522   0.494   0.462   0.478   0.482   0.452   0.464   0.434   0.423   0.437   0.437   0.442   0.428   0.399   0.420   0.452   0.419   0.460   0.430   0.428   0.440   0.446   0.435   0.412   0.424   0.426   0.388   0.424   0.379   0.431   0.460   0.442   0.444   0.420   0.456   0.456   0.461   0.446   0.451   0.457   0.499   0.490   0.479   0.519   0.497   0.433   0.415   0.431   0.407   0.437   0.442   0.398   0.377   0.387   0.401   0.387   0.405   0.418   0.412
   205.60    0.500   0.458   0.499   0.480   0.466   0.454   0.467   0.471   0.493   0.515   0.500   0.477   0.509   0.515   0.488   0.489   0.462   0.483   0.452   0.434   0.427   0.445   0.440   0.432   0.442   0.464   0.436   0.434   0.449   0.457   0.452   0.468   0.450   0.463   0.488   0.480   0.469   0.470   0.469   0.462   0.448   0.464   0.485   0.470   0.466   0.449   0.484   0.514   0.470   0.486   0.492   0.457   0.429   0.418   0.427   0.444   0.463   0.511   0.512   0.449   0.453   0.485   0.515   0.503   0.499   0.437   0.438   0.463   0.462   0.466   0.464   0.478   0.479   0.478   0.502   0.502   0.522   0.477   0.470   0.467   0.436   0.471   0.447   0.440   0.448   0.418   0.434   0.414   0.399   0.426   0.431   0.445   0.472   0.464   0.440   0.480   0.423   0.455   0.447   0.434   0.435   0.412   0.423   0.454   0.460   0.466   0.478   0.482   0.500   0.458   0.474   0.489   0.467   0.435   0.470   0.500   0.513   0.522   0.549   0.510   0.483   0.486   0.482   0.489   0.470   0.462   0.470   0.482   0.501   0.507   0.532   0.515   0.497   0.521   0.518   0.478   0.464   0.468   0.459   0.486   0.451   0.445   0.426   0.467   0.450   0.457   0.449   0.452   0.438   0.465   0.452   0.448   0.411   0.427   0.441   0.470   0.432   0.429   0.397   0.408   0.400   0.389   0.405   0.442   0.473   0.458   0.440   0.439   0.409   0.454   0.432   0.444   0.443   0.446   0.498   0.529   0.518   0.526   0.482   0.470   0.434   0.437   0.450   0.469   0.465   0.412   0.411   0.405   0.404   0.394   0.401   0.408   0.421
   196.30    0.474   0.465   0.464   0.442   0.473   0.480   0.484   0.482   0.501   0.494   0.471   0.481   0.462   0.494   0.472   0.467   0.465   0.463   0.491   0.433   0.453   0.448   0.460   0.425   0.444   0.438   0.453   0.437   0.493   0.451   0.436   0.457   0.467   0.425   0.470   0.468   0.433   0.447   0.440   0.489   0.437   0.458   0.475   0.504   0.500   0.488   0.519   0.507   0.495   0.482   0.486   0.492   0.454   0.439   0.453   0.483   0.472   0.483   0.509   0.476   0.447   0.478   0.464   0.472   0.474   0.421   0.416   0.418   0.436   0.450   0.428   0.468   0.468   0.474   0.484   0.515   0.528   0.493   0.504   0.449   0.439   0.453   0.436   0.442   0.449   0.431   0.420   0.393   0.426   0.415   0.423   0.428   0.461   0.466   0.474   0.472   0.443   0.474   0.480   0.481   0.470   0.473   0.458   0.493   0.501   0.482   0.488   0.491   0.506   0.459   0.496   0.474   0.473   0.465   0.488   0.502   0.511   0.509   0.497   0.489   0.469   0.464   0.500   0.476   0.482   0.464   0.486   0.462   0.529   0.516   0.485   0.527   0.527   0.545   0.523   0.499   0.477   0.482   0.457   0.473   0.503   0.495   0.473   0.492   0.513   0.484   0.483   0.490   0.481   0.471   0.493   0.481   0.454   0.438   0.450   0.456   0.455   0.434   0.389   0.392   0.378   0.379   0.377   0.419   0.458   0.467   0.438   0.433   0.409   0.416   0.428   0.442   0.455   0.471   0.502   0.530   0.529   0.516   0.471   0.479   0.468   0.475   0.483   0.469   0.464   0.449   0.393   0.420   0.428   0.456   0.463   0.467   0.418
   187.00    0.447   0.432   0.452   0.446   0.464   0.460   0.469   0.463   0.472   0.482   0.473   0.444   0.462   0.457   0.447   0.456   0.469   0.450   0.441   0.432   0.434   0.467   0.452   0.439   0.453   0.454   0.479   0.457   0.481   0.464   0.446   0.439   0.440   0.429   0.421   0.442   0.427   0.429   0.450   0.448   0.437   0.452   0.474   0.516   0.522   0.517   0.515   0.535   0.513   0.482   0.502   0.501   0.478   0.451   0.485   0.489   0.479   0.475   0.487   0.458   0.459   0.482   0.467   0.467   0.448   0.443   0.438   0.427   0.433   0.424   0.464   0.477   0.452   0.475   0.509   0.489   0.524   0.516   0.479   0.467   0.456   0.458   0.438   0.413   0.463   0.440   0.413   0.440   0.435   0.424   0.409   0.429   0.442   0.455   0.490   0.479   0.460   0.478   0.480   0.464   0.486   0.463   0.457   0.458   0.484   0.486   0.487   0.498   0.493   0.468   0.436   0.467   0.445   0.443   0.472   0.472   0.471   0.476   0.487   0.452   0.486   0.518   0.512   0.465   0.486   0.471   0.504   0.506   0.528   0.514   0.535   0.538   0.563   0.521   0.500   0.492   0.468   0.480   0.450   0.467   0.488   0.487   0.471   0.498   0.496   0.513   0.512   0.512   0.498   0.506   0.498   0.493   0.468   0.486   0.469   0.472   0.425   0.432   0.420   0.373   0.388   0.410   0.406   0.417   0.428   0.452   0.440   0.433   0.406   0.410   0.397   0.435   0.416   0.486   0.523   0.502   0.494   0.512   0.484   0.491   0.501   0.468   0.479   0.495   0.504   0.502   0.465   0.461   0.449   0.475   0.456   0.468   0.419
   177.70    0.435   0.439   0.474   0.494   0.485   0.471   0.506   0.497   0.506   0.481   0.458   0.468   0.432   0.465   0.450   0.455   0.457   0.470   0.446   0.444   0.454   0.450   0.454   0.437   0.421   0.447   0.447   0.438   0.450   0.459   0.453   0.451   0.439   0.454   0.415   0.412   0.406   0.423   0.434   0.419   0.440   0.449   0.482   0.515   0.524   0.525   0.515   0.526   0.501   0.483   0.471   0.474   0.476   0.478   0.494   0.499   0.494   0.479   0.496   0.472   0.470   0.451   0.425   0.460   0.493   0.442   0.436   0.411   0.410   0.418   0.450   0.462   0.507   0.486   0.496   0.485   0.535   0.516   0.462   0.455   0.455   0.435   0.458   0.442   0.449   0.444   0.418   0.398   0.432   0.417   0.377   0.415   0.427   0.452   0.483   0.458   0.453   0.490   0.460   0.458   0.478   0.473   0.483   0.456   0.475   0.515   0.490   0.484   0.463   0.457   0.471   0.485   0.449   0.440   0.470   0.486   0.498   0.469   0.473   0.501   0.465   0.496   0.501   0.486   0.486   0.516   0.499   0.526   0.522   0.527   0.562   0.578   0.583   0.533   0.510   0.469   0.469   0.488   0.460   0.450   0.451   0.489   0.504   0.474   0.509   0.542   0.504   0.496   0.514   0.521   0.479   0.497   0.511   0.510   0.490   0.503   0.453   0.440   0.432   0.399   0.403   0.428   0.408   0.409   0.412   0.433   0.432   0.420   0.412   0.395   0.430   0.438   0.443   0.485   0.493   0.498   0.506   0.474   0.498   0.517   0.481   0.495   0.458   0.495   0.526   0.527   0.493   0.468   0.450   0.481   0.476   0.462   0.387
   168.40    0.468   0.477   0.480   0.491   0.491   0.476   0.491   0.481   0.465   0.454   0.464   0.451   0.449   0.485   0.459   0.454   0.443   0.449   0.443   0.439   0.435   0.440   0.422   0.416   0.421   0.437   0.457   0.474   0.456   0.463   0.480   0.467   0.454   0.442   0.427   0.406   0.422   0.453   0.476   0.439   0.447   0.491   0.496   0.560   0.532   0.522   0.478   0.490   0.493   0.468   0.489   0.476   0.509   0.489   0.547   0.505   0.470   0.488   0.520   0.498   0.448   0.496   0.456   0.480   0.469   0.455   0.443   0.433   0.407   0.406   0.446   0.468   0.498   0.488   0.479   0.505   0.506   0.511   0.435   0.453   0.453   0.471   0.460   0.448   0.447   0.450   0.402   0.421   0.436   0.394   0.406   0.426   0.447   0.470   0.459   0.427   0.451   0.475   0.497   0.483   0.504   0.499   0.488   0.495   0.478   0.484   0.491   0.473   0.478   0.463   0.473   0.478   0.497   0.458   0.482   0.501   0.490   0.453   0.475   0.468   0.482   0.474   0.475   0.483   0.480   0.508   0.509   0.500   0.477   0.501   0.520   0.533   0.550   0.536   0.502   0.463   0.457   0.481   0.456   0.467   0.473   0.482   0.462   0.512   0.534   0.501   0.500   0.507   0.502   0.512   0.486   0.468   0.477   0.477   0.462   0.460   0.479   0.442   0.464   0.434   0.430   0.438   0.428   0.419   0.404   0.383   0.416   0.420   0.444   0.408   0.426   0.422   0.465   0.485   0.483   0.486   0.492   0.486   0.501   0.497   0.530   0.498   0.495   0.522   0.514   0.511   0.499   0.495   0.470   0.486   0.435   0.423   0.400
   159.10    0.491   0.465   0.475   0.458   0.479   0.491   0.490   0.483   0.464   0.467   0.481   0.484   0.475   0.527   0.502   0.460   0.446   0.439   0.452   0.450   0.423   0.412   0.461   0.419   0.430   0.438   0.421   0.456   0.467   0.424   0.457   0.469   0.434   0.445   0.447   0.440   0.445   0.482   0.500   0.490   0.484   0.508   0.523   0.536   0.548   0.506   0.479   0.468   0.450   0.426   0.435   0.423   0.447   0.472   0.514   0.504   0.517   0.493   0.510   0.504   0.499   0.466   0.457   0.467   0.465   0.470   0.422   0.407   0.421   0.421   0.456   0.477   0.485   0.484   0.476   0.486   0.479   0.499   0.480   0.439   0.433   0.451   0.452   0.437   0.433   0.431   0.413   0.399   0.413   0.420   0.422   0.404   0.439   0.440   0.450   0.415   0.454   0.462   0.480   0.498   0.509   0.515   0.523   0.492   0.474   0.480   0.498   0.493   0.515   0.485   0.491   0.501   0.499   0.483   0.490   0.490   0.473   0.490   0.493   0.495   0.492   0.506   0.474   0.475   0.484   0.521   0.534   0.475   0.510   0.487   0.470   0.512   0.480   0.505   0.505   0.477   0.479   0.476   0.464   0.467   0.484   0.465   0.483   0.523   0.503   0.495   0.489   0.483   0.468   0.484   0.468   0.450   0.456   0.491   0.499   0.498   0.483   0.464   0.484   0.432   0.430   0.427   0.398   0.415   0.403   0.407   0.434   0.406   0.424   0.431   0.434   0.450   0.500   0.512   0.498   0.500   0.513   0.506   0.506   0.522   0.529   0.527   0.495   0.506   0.495   0.521   0.505   0.479   0.464   0.463   0.456   0.435   0.446
   149.80    0.518   0.485   0.490   0.483   0.524   0.511   0.503   0.483   0.502   0.512   0.500   0.488   0.523   0.516   0.487   0.452   0.417   0.436   0.434   0.455   0.430   0.460   0.468   0.466   0.413   0.428   0.422   0.419   0.452   0.458   0.454   0.469   0.477   0.438   0.437   0.450   0.441   0.479   0.468   0.497   0.475   0.507   0.544   0.517   0.535   0.531   0.524   0.476   0.465   0.436   0.417   0.447   0.412   0.458   0.492   0.491   0.499   0.489   0.483   0.479   0.465   0.506   0.464   0.477   0.477   0.457   0.431   0.428   0.434   0.452   0.426   0.461   0.454   0.485   0.475   0.444   0.446   0.456   0.441   0.418   0.434   0.428   0.434   0.413   0.455   0.437   0.429   0.415   0.417   0.413   0.460   0.436   0.408   0.422   0.425   0.447   0.445   0.465   0.470   0.486   0.523   0.517   0.489   0.505   0.502   0.497   0.500   0.500   0.526   0.517   0.524   0.497   0.496   0.500   0.508   0.496   0.503   0.497   0.520   0.492   0.455   0.504   0.485   0.474   0.502   0.529   0.512   0.476   0.493   0.473   0.464   0.494   0.492   0.484   0.492   0.488   0.478   0.444   0.459   0.438   0.467   0.500   0.508   0.479   0.485   0.483   0.447   0.448   0.484   0.479   0.440   0.446   0.439   0.474   0.499   0.482   0.471   0.487   0.477   0.448   0.448   0.431   0.435   0.412   0.408   0.418   0.398   0.424   0.395   0.375   0.417   0.438   0.478   0.497   0.484   0.474   0.480   0.516   0.484   0.528   0.537   0.514   0.482   0.496   0.510   0.530   0.495   0.484   0.450   0.437   0.422   0.435   0.421
   140.50    0.483   0.478   0.495   0.504   0.522   0.546   0.538   0.549   0.535   0.507   0.487   0.489   0.485   0.465   0.475   0.407   0.408   0.403   0.429   0.444   0.464   0.478   0.482   0.443   0.435   0.402   0.405   0.387   0.439   0.441   0.447   0.456   0.448   0.434   0.414   0.404   0.445   0.447   0.488   0.494   0.494   0.511   0.513   0.574   0.575   0.545   0.539   0.509   0.514   0.455   0.455   0.476   0.429   0.462   0.489   0.492   0.471   0.496   0.484   0.460   0.455   0.473   0.480   0.475   0.476   0.439   0.408   0.426   0.425   0.430   0.430   0.451   0.462   0.466   0.464   0.445   0.440   0.435   0.428   0.429   0.420   0.444   0.446   0.429   0.432   0.433   0.432   0.434   0.431   0.434   0.419   0.417   0.417   0.407   0.409   0.420   0.438   0.465   0.498   0.515   0.498   0.488   0.480   0.476   0.515   0.480   0.477   0.467   0.515   0.519   0.531   0.504   0.464   0.477   0.490   0.519   0.537   0.542   0.520   0.481   0.465   0.456   0.471   0.471   0.458   0.493   0.492   0.465   0.454   0.435   0.477   0.471   0.482   0.500   0.473   0.443   0.454   0.445   0.451   0.455   0.505   0.517   0.482   0.451   0.445   0.444   0.428   0.453   0.464   0.441   0.439   0.489   0.471   0.469   0.470   0.489   0.462   0.483   0.465   0.484   0.470   0.477   0.443   0.442   0.457   0.471   0.434   0.419   0.402   0.381   0.401   0.430   0.474   0.457   0.478   0.462   0.467   0.489   0.538   0.548   0.547   0.485   0.485   0.479   0.476   0.496   0.475   0.468   0.444   0.439   0.437   0.396   0.398
   131.20    0.503   0.499   0.500   0.493   0.499   0.514   0.540   0.549   0.535   0.508   0.514   0.484   0.472   0.462   0.458   0.457   0.431   0.419   0.428   0.464   0.452   0.483   0.474   0.435   0.426   0.411   0.407   0.395   0.428   0.429   0.437   0.452   0.424   0.425   0.421   0.426   0.402   0.446   0.474   0.488   0.511   0.507   0.501   0.541   0.572   0.553   0.544   0.543   0.548   0.494   0.476   0.492   0.467   0.468   0.488   0.502   0.492   0.492   0.504   0.456   0.456   0.495   0.495   0.519   0.491   0.472   0.436   0.403   0.418   0.469   0.471   0.447   0.447   0.466   0.473   0.470   0.447   0.453   0.442   0.418   0.428   0.410   0.446   0.432   0.428   0.448   0.433   0.433   0.439   0.426   0.427   0.423   0.430   0.412   0.411   0.448   0.469   0.446   0.448   0.497   0.521   0.509   0.491   0.527   0.544   0.496   0.500   0.496   0.495   0.524   0.520   0.519   0.498   0.482   0.493   0.506   0.532   0.569   0.555   0.480   0.455   0.456   0.446   0.451   0.452   0.474   0.465   0.447   0.458   0.459   0.493   0.510   0.460   0.440   0.450   0.444   0.435   0.463   0.491   0.466   0.492   0.491   0.485   0.479   0.462   0.459   0.442   0.438   0.456   0.431   0.456   0.477   0.475   0.485   0.458   0.482   0.489   0.478   0.501   0.501   0.490   0.498   0.464   0.437   0.433   0.464   0.430   0.417   0.409   0.405   0.416   0.441   0.471   0.477   0.479   0.478   0.452   0.486   0.516   0.529   0.523   0.496   0.469   0.491   0.497   0.479   0.479   0.469   0.443   0.449   0.442   0.415   0.399
   121.90    0.494   0.509   0.486   0.467   0.501   0.517   0.509   0.530   0.550   0.545   0.544   0.499   0.489   0.499   0.489   0.454   0.418   0.435   0.441   0.459   0.469   0.480   0.457   0.476   0.427   0.415   0.388   0.417   0.418   0.430   0.418   0.405   0.421   0.401   0.398   0.413   0.420   0.413   0.459   0.470   0.514   0.485   0.506   0.526   0.552   0.554   0.547   0.556   0.500   0.512   0.487   0.490   0.495   0.474   0.509   0.519   0.525   0.507   0.455   0.476   0.476   0.441   0.500   0.511   0.533   0.476   0.445   0.441   0.445   0.480   0.469   0.473   0.443   0.442   0.440   0.448   0.471   0.472   0.438   0.452   0.452   0.432   0.434   0.470   0.486   0.465   0.436   0.441   0.455   0.427   0.436   0.419   0.418   0.403   0.391   0.426   0.458   0.503   0.496   0.500   0.516   0.500   0.485   0.521   0.514   0.505   0.470   0.480   0.507   0.535   0.506   0.508   0.503   0.468   0.505   0.495   0.548   0.573   0.517   0.472   0.446   0.448   0.450   0.437   0.444   0.466   0.441   0.463   0.464   0.476   0.461   0.460   0.473   0.471   0.442   0.446   0.412   0.457   0.469   0.451   0.490   0.431   0.468   0.454   0.439   0.449   0.410   0.414   0.457   0.444   0.476   0.464   0.439   0.485   0.457   0.431   0.460   0.485   0.513   0.493   0.462   0.466   0.476   0.431   0.395   0.418   0.409   0.431   0.419   0.422   0.417   0.428   0.465   0.459   0.483   0.467   0.489   0.471   0.492   0.510   0.488   0.445   0.456   0.457   0.482   0.498   0.496   0.451   0.481   0.453   0.450   0.417   0.414
   112.60    0.494   0.464   0.461   0.478   0.528   0.534   0.563   0.548   0.552   0.578   0.551   0.500   0.521   0.499   0.504   0.467   0.471   0.478   0.464   0.464   0.478   0.451   0.465   0.450   0.427   0.450   0.420   0.431   0.425   0.444   0.390   0.385   0.391   0.411   0.395   0.386   0.415   0.434   0.438   0.431   0.480   0.506   0.489   0.493   0.501   0.494   0.497   0.521   0.529   0.514   0.502   0.485   0.505   0.502   0.507   0.547   0.529   0.503   0.489   0.499   0.455   0.455   0.496   0.535   0.508   0.458   0.490   0.443   0.476   0.477   0.479   0.474   0.483   0.478   0.476   0.441   0.464   0.466   0.464   0.433   0.439   0.459   0.478   0.502   0.522   0.496   0.478   0.453   0.462   0.445   0.425   0.427   0.400   0.422   0.407   0.411   0.445   0.478   0.511   0.536   0.525   0.513   0.531   0.516   0.508   0.518   0.476   0.478   0.508   0.529   0.527   0.505   0.464   0.452   0.472   0.471   0.536   0.542   0.488   0.463   0.452   0.440   0.439   0.467   0.469   0.472   0.500   0.509   0.460   0.461   0.463   0.474   0.471   0.473   0.455   0.420   0.422   0.431   0.428   0.431   0.451   0.411   0.441   0.473   0.449   0.419   0.440   0.432   0.445   0.416   0.420   0.440   0.454   0.434   0.439   0.466   0.465   0.487   0.489   0.482   0.453   0.467   0.483   0.445   0.408   0.400   0.433   0.438   0.427   0.416   0.406   0.445   0.439   0.446   0.470   0.466   0.449   0.480   0.480   0.490   0.500   0.439   0.436   0.443   0.477   0.474   0.468   0.431   0.486   0.484   0.460   0.422   0.439
   103.30    0.497   0.466   0.434   0.459   0.525   0.547   0.546   0.551   0.597   0.573   0.541   0.512   0.483   0.535   0.536   0.490   0.499   0.483   0.490   0.466   0.438   0.450   0.423   0.390   0.440   0.448   0.455   0.431   0.398   0.415   0.443   0.438   0.410   0.414   0.387   0.375   0.422   0.442   0.429   0.405   0.461   0.474   0.447   0.488   0.471   0.478   0.473   0.503   0.524   0.460   0.478   0.466   0.483   0.532   0.516   0.497   0.528   0.511   0.496   0.465   0.487   0.468   0.480   0.480   0.481   0.471   0.478   0.480   0.466   0.494   0.482   0.488   0.491   0.487   0.465   0.439   0.463   0.466   0.485   0.496   0.448   0.471   0.481   0.513   0.513   0.494   0.463   0.458   0.453   0.437   0.419   0.422   0.417   0.430   0.441   0.451   0.441   0.488   0.504   0.533   0.506   0.527   0.521   0.499   0.513   0.517   0.515   0.511   0.511   0.510   0.544   0.503   0.424   0.404   0.444   0.458   0.499   0.523   0.522   0.478   0.490   0.457   0.465   0.442   0.439   0.464   0.471   0.465   0.464   0.488   0.456   0.470   0.473   0.463   0.443   0.433   0.413   0.427   0.436   0.447   0.424   0.425   0.423   0.454   0.429   0.414   0.430   0.445   0.429   0.392   0.413   0.428   0.448   0.478   0.458   0.469   0.479   0.484   0.484   0.495   0.486   0.465   0.479   0.457   0.411   0.484   0.463   0.452   0.442   0.382   0.412   0.415   0.437   0.417   0.431   0.442   0.477   0.491   0.491   0.481   0.476   0.435   0.400   0.435   0.448   0.477   0.437   0.442   0.467   0.507   0.502   0.463   0.483
    94.00    0.493   0.474   0.492   0.484   0.513   0.523   0.513   0.533   0.540   0.521   0.543   0.526   0.552   0.528   0.548   0.508   0.517   0.497   0.494   0.449   0.440   0.424   0.403   0.393   0.412   0.399   0.424   0.442   0.439   0.429   0.446   0.438   0.424   0.425   0.398   0.413   0.412   0.437   0.435   0.427   0.456   0.462   0.479   0.452   0.463   0.457   0.493   0.516   0.500   0.466   0.471   0.508   0.496   0.511   0.527   0.517   0.539   0.498   0.522   0.495   0.470   0.476   0.475   0.468   0.483   0.454   0.475   0.467   0.491   0.480   0.468   0.456   0.504   0.490   0.434   0.452   0.479   0.494   0.461   0.452   0.435   0.439   0.449   0.475   0.493   0.461   0.454   0.459   0.456   0.433   0.445   0.440   0.430   0.459   0.441   0.458   0.459   0.475   0.499   0.518   0.490   0.491   0.492   0.529   0.502   0.519   0.522   0.485   0.474   0.488   0.497   0.463   0.430   0.430   0.459   0.454   0.467   0.484   0.487   0.504   0.465   0.461   0.438   0.429   0.430   0.447   0.412   0.443   0.445   0.435   0.462   0.464   0.458   0.451   0.464   0.457   0.434   0.435   0.433   0.462   0.459   0.445   0.396   0.445   0.447   0.404   0.425   0.441   0.393   0.386   0.416   0.415   0.474   0.465   0.448   0.455   0.478   0.461   0.460   0.473   0.485   0.461   0.464   0.440   0.421   0.451   0.459   0.453   0.451   0.411   0.421   0.422   0.430   0.436   0.429   0.450   0.490   0.489   0.497   0.493   0.454   0.447   0.446   0.417   0.464   0.447   0.458   0.429   0.455   0.458   0.477   0.448   0.471
    84.70    0.505   0.515   0.519   0.541   0.504   0.513   0.521   0.506   0.532   0.561   0.535   0.533   0.542   0.533   0.508   0.529   0.498   0.511   0.491   0.450   0.417   0.404   0.373   0.405   0.411   0.439   0.426   0.430   0.446   0.417   0.420   0.434   0.434   0.415   0.408   0.413   0.424   0.458   0.434   0.407   0.417   0.437   0.506   0.477   0.478   0.464   0.496   0.474   0.476   0.492   0.467   0.488   0.497   0.510   0.524   0.544   0.548   0.541   0.487   0.488   0.491   0.477   0.471   0.460   0.456   0.448   0.442   0.447   0.513   0.515   0.487   0.506   0.496   0.484   0.457   0.427   0.453   0.462   0.464   0.465   0.464   0.454   0.417   0.445   0.432   0.424   0.470   0.451   0.464   0.433   0.432   0.420   0.423   0.424   0.459   0.472   0.476   0.484   0.491   0.492   0.521   0.501   0.491   0.511   0.499   0.500   0.474   0.470   0.463   0.463   0.471   0.478   0.475   0.465   0.485   0.452   0.467   0.470   0.491   0.478   0.457   0.446   0.405   0.394   0.424   0.422   0.448   0.442   0.440   0.447   0.470   0.467   0.460   0.466   0.483   0.443   0.437   0.459   0.461   0.462   0.450   0.455   0.408   0.417   0.424   0.426   0.425   0.448   0.443   0.448   0.443   0.430   0.466   0.483   0.467   0.481   0.470   0.454   0.441   0.418   0.464   0.468   0.437   0.407   0.418   0.410   0.411   0.453   0.465   0.434   0.426   0.419   0.411   0.442   0.445   0.424   0.474   0.495   0.479   0.468   0.468   0.441   0.430   0.446   0.465   0.477   0.433   0.444   0.471   0.458   0.447   0.429   0.464
    75.40    0.502   0.503   0.510   0.548   0.529   0.532   0.512   0.514   0.520   0.547   0.559   0.543   0.545   0.522   0.501   0.501   0.471   0.494   0.511   0.435   0.409   0.388   0.385   0.395   0.414   0.439   0.432   0.408   0.437   0.431   0.431   0.423   0.429   0.400   0.404   0.406   0.424   0.452   0.453   0.438   0.457   0.461   0.470   0.495   0.477   0.460   0.471   0.480   0.476   0.462   0.495   0.447   0.471   0.495   0.529   0.540   0.537   0.546   0.474   0.483   0.469   0.452   0.494   0.467   0.465   0.471   0.488   0.486   0.535   0.541   0.536   0.515   0.471   0.464   0.443   0.432   0.439   0.448   0.449   0.456   0.468   0.444   0.447   0.467   0.441   0.437   0.465   0.468   0.435   0.436   0.421   0.406   0.416   0.444   0.453   0.458   0.477   0.478   0.519   0.500   0.509   0.509   0.517   0.506   0.474   0.471   0.458   0.462   0.441   0.436   0.449   0.455   0.478   0.482   0.486   0.473   0.426   0.452   0.458   0.451   0.401   0.417   0.441   0.427   0.436   0.438   0.425   0.418   0.455   0.485   0.484   0.466   0.438   0.458   0.469   0.469   0.450   0.454   0.443   0.462   0.460   0.449   0.442   0.464   0.443   0.428   0.448   0.442   0.443   0.436   0.445   0.420   0.432   0.447   0.440   0.448   0.453   0.453   0.428   0.422   0.443   0.435   0.451   0.463   0.448   0.429   0.438   0.469   0.447   0.432   0.410   0.430   0.435   0.447   0.423   0.440   0.466   0.448   0.466   0.481   0.466   0.450   0.437   0.458   0.468   0.460   0.441   0.450   0.462   0.478   0.436   0.412   0.460
    66.10    0.501   0.474   0.526   0.516   0.492   0.473   0.482   0.499   0.510   0.536   0.526   0.513   0.529   0.494   0.459   0.461   0.478   0.504   0.478   0.409   0.390   0.409   0.412   0.390   0.389   0.408   0.401   0.426   0.453   0.433   0.401   0.414   0.421   0.442   0.398   0.411   0.415   0.407   0.418   0.430   0.443   0.470   0.474   0.463   0.444   0.464   0.471   0.431   0.418   0.443   0.448   0.447   0.479   0.471   0.506   0.548   0.521   0.539   0.498   0.456   0.466   0.470   0.474   0.485   0.488   0.510   0.520   0.514   0.536   0.555   0.534   0.507   0.494   0.506   0.449   0.437   0.434   0.419   0.445   0.437   0.445   0.418   0.424   0.452   0.441   0.447   0.438   0.444   0.446   0.416   0.426   0.428   0.424   0.421   0.466   0.468   0.453   0.470   0.483   0.486   0.491   0.537   0.500   0.473   0.526   0.497   0.482   0.445   0.433   0.438   0.466   0.450   0.487   0.482   0.462   0.457   0.435   0.432   0.457   0.452   0.435   0.430   0.434   0.454   0.474   0.429   0.424   0.420   0.445   0.465   0.449   0.451   0.448   0.424   0.434   0.436   0.436   0.467   0.442   0.464   0.444   0.447   0.424   0.441   0.433   0.431   0.430   0.448   0.417   0.410   0.447   0.402   0.411   0.397   0.411   0.441   0.461   0.420   0.425   0.420   0.429   0.417   0.423   0.457   0.455   0.441   0.438   0.430   0.429   0.445   0.424   0.461   0.454   0.450   0.424   0.462   0.417   0.427   0.457   0.453   0.458   0.455   0.455   0.449   0.443   0.430   0.432   0.429   0.452   0.445   0.446   0.456   0.470
    56.80    0.513   0.504   0.532   0.534   0.528   0.466   0.498   0.477   0.485   0.516   0.533   0.507   0.539   0.514   0.470   0.461   0.460   0.505   0.449   0.436   0.451   0.424   0.402   0.416   0.410   0.430   0.405   0.407   0.418   0.417   0.397   0.397   0.404   0.410   0.440   0.432   0.432   0.447   0.428   0.435   0.443   0.439   0.431   0.452   0.474   0.473   0.450   0.436   0.458   0.458   0.475   0.481   0.488   0.511   0.524   0.533   0.548   0.516   0.493   0.498   0.478   0.481   0.510   0.508   0.512   0.520   0.533   0.529   0.527   0.526   0.488   0.491   0.492   0.493   0.492   0.455   0.453   0.415   0.463   0.419   0.419   0.417   0.424   0.445   0.441   0.446   0.402   0.400   0.420   0.416   0.429   0.376   0.392   0.422   0.473   0.459   0.435   0.437   0.446   0.464   0.486   0.489   0.472   0.484   0.488   0.496   0.474   0.457   0.453   0.469   0.413   0.410   0.432   0.461   0.478   0.440   0.459   0.449   0.446   0.450   0.443   0.444   0.452   0.448   0.480   0.430   0.427   0.416   0.428   0.442   0.443   0.430   0.421   0.406   0.411   0.424   0.439   0.454   0.454   0.449   0.413   0.412   0.420   0.438   0.444   0.452   0.429   0.431   0.410   0.420   0.440   0.400   0.407   0.404   0.426   0.412   0.435   0.423   0.400   0.421   0.424   0.416   0.415   0.427   0.411   0.400   0.429   0.403   0.393   0.428   0.429   0.439   0.447   0.437   0.413   0.454   0.413   0.458   0.487   0.465   0.458   0.453   0.444   0.429   0.416   0.401   0.402   0.374   0.423   0.431   0.461   0.484   0.493
    47.50    0.547   0.545   0.535   0.548   0.540   0.507   0.525   0.508   0.522   0.527   0.522   0.501   0.496   0.510   0.479   0.496   0.450   0.482   0.479   0.461   0.463   0.433   0.431   0.448   0.434   0.455   0.437   0.437   0.402   0.410   0.403   0.405   0.425   0.412   0.421   0.439   0.414   0.447   0.425   0.421   0.428   0.435   0.456   0.472   0.469   0.474   0.445   0.455   0.438   0.434   0.489   0.502   0.507   0.541   0.534   0.548   0.558   0.504   0.491   0.511   0.525   0.514   0.497   0.515   0.497   0.486   0.513   0.515   0.490   0.507   0.485   0.512   0.504   0.485   0.479   0.469   0.455   0.459   0.454   0.425   0.411   0.416   0.448   0.468   0.466   0.440   0.411   0.404   0.403   0.410   0.399   0.412   0.413   0.457   0.482   0.469   0.446   0.483   0.460   0.468   0.439   0.450   0.438   0.483   0.490   0.506   0.517   0.486   0.459   0.437   0.385   0.398   0.414   0.435   0.453   0.461   0.468   0.468   0.449   0.460   0.426   0.461   0.444   0.489   0.491   0.460   0.444   0.427   0.416   0.431   0.432   0.420   0.427   0.414   0.404   0.460   0.469   0.449   0.426   0.430   0.431   0.403   0.414   0.437   0.448   0.466   0.473   0.479   0.437   0.405   0.423   0.415   0.363   0.394   0.395   0.404   0.421   0.416   0.413   0.411   0.408   0.429   0.432   0.429   0.421   0.410   0.417   0.404   0.393   0.432   0.420   0.420   0.438   0.417   0.394   0.428   0.432   0.466   0.487   0.454   0.464   0.469   0.461   0.464   0.390   0.379   0.387   0.414   0.428   0.459   0.497   0.490   0.485
    38.20    0.507   0.537   0.567   0.532   0.508   0.507   0.509   0.551   0.542   0.565   0.514   0.516   0.525   0.500   0.467   0.449   0.464   0.462   0.447   0.462   0.462   0.451   0.419   0.428   0.432   0.430   0.459   0.435   0.429   0.407   0.383   0.398   0.444   0.452   0.405   0.434   0.437   0.420   0.423   0.433   0.416   0.431   0.437   0.445   0.448   0.456   0.438   0.461   0.444   0.456   0.501   0.532   0.551   0.563   0.554   0.567   0.526   0.475   0.486   0.525   0.527   0.502   0.522   0.506   0.487   0.459   0.505   0.489   0.492   0.502   0.519   0.487   0.503   0.500   0.442   0.454   0.448   0.469   0.451   0.415   0.405   0.405   0.435   0.491   0.490   0.452   0.434   0.428   0.449   0.438   0.415   0.412   0.447   0.462   0.482   0.480   0.481   0.465   0.446   0.460   0.443   0.411   0.436   0.507   0.499   0.511   0.503   0.496   0.460   0.447   0.424   0.383   0.379   0.388   0.417   0.461   0.449   0.425   0.438   0.449   0.460   0.440   0.473   0.512   0.517   0.501   0.456   0.424   0.426   0.453   0.428   0.440   0.434   0.436   0.424   0.454   0.466   0.465   0.450   0.420   0.406   0.415   0.407   0.449   0.471   0.460   0.479   0.474   0.466   0.430   0.414   0.396   0.373   0.378   0.404   0.412   0.444   0.441   0.409   0.398   0.397   0.413   0.431   0.441   0.447   0.424   0.397   0.429   0.432   0.451   0.425   0.412   0.374   0.402   0.392   0.398   0.446   0.446   0.463   0.421   0.449   0.490   0.508   0.475   0.449   0.424   0.401   0.409   0.409   0.457   0.495   0.464   0.454
    28.90    0.508   0.549   0.551   0.519   0.486   0.486   0.525   0.536   0.553   0.524   0.527   0.532   0.473   0.481   0.436   0.438   0.478   0.478   0.470   0.455   0.457   0.412   0.414   0.452   0.453   0.450   0.433   0.448   0.433   0.421   0.412   0.416   0.432   0.430   0.418   0.416   0.417   0.423   0.408   0.435   0.431   0.428   0.412   0.438   0.452   0.440   0.427   0.451   0.468   0.466   0.496   0.528   0.541   0.566   0.554   0.543   0.517   0.503   0.479   0.488   0.535   0.531   0.498   0.488   0.472   0.476   0.488   0.487   0.502   0.473   0.460   0.491   0.497   0.524   0.463   0.447   0.424   0.468   0.474   0.468   0.500   0.456   0.451   0.454   0.446   0.479   0.446   0.461   0.448   0.450   0.418   0.448   0.460   0.496   0.474   0.445   0.462   0.450   0.441   0.410   0.387   0.432   0.454   0.502   0.493   0.513   0.467   0.475   0.469   0.442   0.397   0.382   0.387   0.384   0.380   0.424   0.416   0.407   0.438   0.473   0.445   0.479   0.471   0.500   0.492   0.465   0.484   0.438   0.432   0.442   0.457   0.420   0.419   0.431   0.432   0.477   0.478   0.470   0.432   0.406   0.397   0.409   0.437   0.465   0.471   0.456   0.484   0.468   0.458   0.443   0.418   0.407   0.383   0.364   0.408   0.391   0.409   0.425   0.432   0.423   0.415   0.422   0.412   0.411   0.431   0.444   0.443   0.444   0.428   0.430   0.431   0.406   0.384   0.411   0.410   0.413   0.430   0.435   0.450   0.449   0.478   0.486   0.506   0.474   0.420   0.413   0.419   0.444   0.445   0.464   0.477   0.473   0.470
    19.60    0.498   0.501   0.507   0.505   0.496   0.501   0.520   0.536   0.528   0.518   0.500   0.466   0.468   0.457   0.451   0.462   0.472   0.449   0.463   0.451   0.456   0.447   0.439   0.422   0.424   0.432   0.458   0.436   0.446   0.422   0.425   0.401   0.413   0.446   0.407   0.438   0.423   0.406   0.420   0.429   0.438   0.441   0.425   0.444   0.468   0.456   0.469   0.451   0.457   0.459   0.471   0.506   0.508   0.553   0.589   0.549   0.518   0.520   0.505   0.512   0.543   0.513   0.529   0.524   0.518   0.489   0.490   0.469   0.488   0.486   0.460   0.481   0.526   0.525   0.466   0.462   0.442   0.461   0.446   0.476   0.482   0.496   0.476   0.470   0.451   0.488   0.502   0.518   0.472   0.446   0.459   0.481   0.491   0.506   0.464   0.456   0.429   0.429   0.411   0.416   0.442   0.442   0.455   0.494   0.499   0.499   0.478   0.478   0.427   0.432   0.412   0.411   0.430   0.402   0.419   0.429   0.414   0.433   0.465   0.472   0.476   0.454   0.452   0.467   0.467   0.480   0.479   0.493   0.442   0.455   0.435   0.436   0.434   0.432   0.461   0.489   0.476   0.454   0.429   0.424   0.384   0.409   0.424   0.457   0.437   0.467   0.480   0.446   0.433   0.439   0.419   0.419   0.372   0.383   0.397   0.417   0.445   0.431   0.432   0.453   0.440   0.463   0.445   0.441   0.436   0.438   0.439   0.445   0.409   0.406   0.411   0.412   0.414   0.415   0.427   0.402   0.423   0.420   0.440   0.436   0.441   0.469   0.483   0.444   0.403   0.365   0.398   0.444   0.468   0.478   0.458   0.443   0.444
    10.30    0.482   0.472   0.487   0.489   0.519   0.496   0.480   0.497   0.501   0.510   0.497   0.470   0.477   0.492   0.469   0.462   0.461   0.444   0.487   0.470   0.492   0.479   0.460   0.430   0.419   0.444   0.434   0.442   0.422   0.421   0.395   0.408   0.407   0.427   0.428   0.432   0.434   0.404   0.410   0.421   0.443   0.437   0.413   0.450   0.448   0.441   0.488   0.441   0.475   0.480   0.479   0.484   0.490   0.499   0.546   0.547   0.514   0.518   0.522   0.542   0.533   0.522   0.511   0.527   0.505   0.477   0.455   0.441   0.466   0.463   0.478   0.488   0.525   0.534   0.511   0.469   0.477   0.438   0.441   0.453   0.451   0.462   0.479   0.476   0.475   0.516   0.554   0.534   0.489   0.475   0.437   0.503   0.529   0.489   0.493   0.460   0.447   0.417   0.422   0.409   0.447   0.417   0.445   0.456   0.499   0.512   0.487   0.472   0.425   0.412   0.397   0.401   0.424   0.440   0.444   0.471   0.462   0.435   0.458   0.480   0.467   0.430   0.464   0.442   0.432   0.451   0.459   0.460   0.461   0.467   0.423   0.421   0.428   0.446   0.452   0.461   0.468   0.439   0.458   0.434   0.406   0.408   0.444   0.441   0.461   0.496   0.477   0.490   0.434   0.452   0.414   0.408   0.389   0.414   0.402   0.429   0.459   0.459   0.480   0.461   0.459   0.437   0.449   0.437   0.430   0.422   0.390   0.393   0.436   0.420   0.424   0.446   0.419   0.407   0.407   0.420   0.395   0.428   0.462   0.446   0.457   0.458   0.460   0.447   0.402   0.406   0.427   0.448   0.454   0.490   0.459   0.440   0.452
     1.00    0.477   0.490   0.503   0.515   0.507   0.499   0.470   0.475   0.508   0.503   0.512   0.508   0.519   0.502   0.472   0.478   0.473   0.466   0.468   0.475   0.501   0.504   0.459   0.429   0.420   0.427   0.425   0.406   0.424   0.415   0.416   0.403   0.420   0.426   0.410   0.405   0.427   0.430   0.431   0.437   0.429   0.406   0.449   0.425   0.440   0.457   0.473   0.453   0.449   0.449   0.456   0.467   0.478   0.457   0.500   0.514   0.507   0.531   0.551   0.518   0.550   0.537   0.509   0.537   0.497   0.496   0.484   0.483   0.447   0.463   0.465   0.468   0.475   0.493   0.530   0.515   0.482   0.438   0.410   0.440   0.436   0.466   0.478   0.495   0.500   0.502   0.529   0.529   0.493   0.463   0.491   0.478   0.511   0.489   0.483   0.471   0.425   0.419   0.407   0.431   0.456   0.454   0.441   0.461   0.459   0.483   0.494   0.443   0.426   0.408   0.422   0.433   0.447   0.467   0.462   0.469   0.471   0.473   0.490   0.478   0.458   0.495   0.461   0.447   0.443   0.453   0.453   0.476   0.482   0.454   0.477   0.437   0.404   0.415   0.443   0.439   0.452   0.439   0.437   0.446   0.410   0.418   0.441   0.434   0.454   0.484   0.481   0.433   0.450   0.431   0.401   0.385   0.396   0.418   0.411   0.443   0.465   0.470   0.464   0.465   0.464   0.427   0.447   0.437   0.438   0.414   0.385   0.402   0.403   0.385   0.386   0.425   0.432   0.440   0.415   0.407   0.431   0.424   0.440   0.453   0.443   0.452   0.450   0.412   0.393   0.397   0.432   0.433   0.444   0.471   0.454   0.434   0.436

   Height   Standard deviation at grid points for the v component:
   354.40    0.391   0.399   0.391   0.375   0.373   0.382   0.383   0.411   0.414   0.409   0.391   0.379   0.388   0.395   0.389   0.385   0.397   0.379   0.365   0.341   0.352   0.368   0.342   0.351   0.363   0.364   0.376   0.362   0.370   0.362   0.388   0.395   0.382   0.372   0.378   0.377   0.380   0.370   0.385   0.413   0.387   0.403   0.397   0.393   0.383   0.398   0.401   0.381   0.379   0.398   0.396   0.408   0.401   0.397   0.396   0.377   0.368   0.390   0.400   0.387   0.374   0.387   0.381   0.393   0.398   0.383   0.390   0.388   0.395   0.365   0.345   0.371   0.408   0.403   0.412   0.388   0.368   0.367   0.393   0.407   0.380   0.386   0.376   0.361   0.347   0.348   0.365   0.370   0.379   0.390   0.383   0.392   0.389   0.395   0.405   0.403   0.406   0.407   0.405   0.390   0.389   0.381   0.381   0.390   0.373   0.388   0.367   0.393   0.386   0.386   0.393   0.397   0.378   0.386   0.415   0.396   0.398   0.409   0.425   0.439   0.429   0.411   0.386   0.365   0.374   0.371   0.387   0.388   0.391   0.403   0.396   0.406   0.404   0.398   0.397   0.413   0.426   0.416   0.440   0.442   0.434   0.440   0.436   0.440   0.441   0.441   0.444   0.431   0.426   0.419   0.393   0.383   0.405   0.392   0.401   0.422   0.409   0.396   0.380   0.364   0.368   0.375   0.393   0.389   0.412   0.374   0.382   0.377   0.378   0.342   0.336   0.353   0.356   0.338   0.375   0.358   0.358   0.364   0.343   0.368   0.370   0.396   0.393   0.389   0.404   0.400   0.414   0.410   0.403   0.377   0.371   0.381   0.385
   345.10    0.397   0.405   0.394   0.382   0.373   0.387   0.415   0.395   0.400   0.403   0.401   0.374   0.377   0.396   0.387   0.396   0.408   0.394   0.393   0.357   0.365   0.381   0.357   0.357   0.355   0.371   0.369   0.371   0.362   0.383   0.376   0.379   0.380   0.366   0.380   0.384   0.387   0.394   0.403   0.396   0.383   0.404   0.401   0.371   0.385   0.399   0.388   0.369   0.383   0.399   0.395   0.410   0.411   0.420   0.382   0.379   0.380   0.373   0.387   0.374   0.375   0.371   0.363   0.372   0.378   0.369   0.358   0.362   0.361   0.360   0.365   0.362   0.389   0.402   0.400   0.395   0.370   0.376   0.376   0.401   0.384   0.384   0.367   0.356   0.337   0.332   0.351   0.363   0.366   0.368   0.366   0.396   0.392   0.381   0.397   0.408   0.419   0.420   0.403   0.393   0.400   0.384   0.389   0.394   0.381   0.371   0.376   0.384   0.381   0.399   0.393   0.374   0.358   0.363   0.388   0.392   0.386   0.420   0.436   0.460   0.422   0.413   0.390   0.368   0.377   0.361   0.372   0.390   0.385   0.382   0.383   0.399   0.394   0.419   0.396   0.398   0.406   0.415   0.426   0.441   0.438   0.418   0.421   0.445   0.455   0.456   0.442   0.452   0.413   0.389   0.386   0.400   0.381   0.395   0.397   0.410   0.402   0.403   0.367   0.366   0.367   0.395   0.401   0.397   0.374   0.376   0.385   0.390   0.361   0.355   0.352   0.376   0.357   0.360   0.368   0.362   0.360   0.363   0.359   0.353   0.376   0.401   0.389   0.383   0.379   0.406   0.420   0.406   0.399   0.381   0.383   0.376   0.397
   335.80    0.408   0.418   0.406   0.379   0.393   0.394   0.373   0.399   0.408   0.419   0.401   0.419   0.378   0.382   0.392   0.405   0.413   0.399   0.396   0.374   0.360   0.365   0.357   0.377   0.357   0.365   0.357   0.363   0.368   0.364   0.366   0.389   0.369   0.361   0.373   0.397   0.404   0.413   0.418   0.409   0.391   0.391   0.380   0.375   0.377   0.389   0.387   0.374   0.392   0.396   0.405   0.410   0.412   0.400   0.382   0.394   0.384   0.376   0.373   0.383   0.368   0.370   0.362   0.365   0.374   0.370   0.367   0.363   0.369   0.384   0.381   0.372   0.375   0.379   0.402   0.379   0.379   0.401   0.397   0.386   0.398   0.386   0.354   0.354   0.357   0.351   0.353   0.354   0.362   0.387   0.390   0.372   0.389   0.400   0.404   0.417   0.400   0.415   0.384   0.407   0.384   0.364   0.383   0.378   0.383   0.380   0.374   0.374   0.369   0.395   0.390   0.366   0.382   0.365   0.378   0.393   0.399   0.416   0.411   0.413   0.417   0.415   0.388   0.395   0.399   0.383   0.370   0.388   0.383   0.384   0.382   0.399   0.406   0.406   0.405   0.404   0.394   0.391   0.405   0.418   0.417   0.433   0.435   0.438   0.455   0.458   0.435   0.416   0.427   0.402   0.402   0.387   0.399   0.383   0.396   0.393   0.409   0.407   0.391   0.379   0.375   0.391   0.410   0.391   0.364   0.364   0.381   0.384   0.369   0.367   0.366   0.378   0.366   0.359   0.392   0.370   0.377   0.377   0.382   0.369   0.374   0.379   0.371   0.376   0.379   0.388   0.409   0.402   0.397   0.395   0.399   0.383   0.411
   326.50    0.406   0.396   0.392   0.378   0.389   0.389   0.388   0.391   0.404   0.411   0.410   0.393   0.392   0.385   0.391   0.389   0.407   0.390   0.374   0.382   0.368   0.372   0.352   0.376   0.363   0.351   0.380   0.370   0.377   0.359   0.347   0.353   0.379   0.386   0.390   0.409   0.418   0.392   0.414   0.399   0.401   0.382   0.381   0.398   0.412   0.380   0.381   0.371   0.384   0.392   0.380   0.386   0.378   0.394   0.360   0.354   0.370   0.373   0.367   0.362   0.375   0.368   0.374   0.372   0.371   0.360   0.359   0.375   0.392   0.394   0.380   0.387   0.371   0.373   0.395   0.383   0.399   0.411   0.408   0.393   0.395   0.367   0.358   0.366   0.353   0.364   0.362   0.347   0.364   0.368   0.378   0.397   0.404   0.411   0.406   0.416   0.407   0.401   0.389   0.405   0.365   0.377   0.387   0.363   0.381   0.366   0.358   0.365   0.372   0.371   0.374   0.371   0.374   0.379   0.390   0.392   0.386   0.392   0.402   0.405   0.406   0.406   0.414   0.417   0.410   0.382   0.382   0.378   0.378   0.394   0.399   0.389   0.387   0.389   0.389   0.400   0.390   0.390   0.407   0.400   0.422   0.436   0.412   0.410   0.433   0.453   0.427   0.426   0.413   0.383   0.377   0.362   0.371   0.380   0.396   0.390   0.389   0.404   0.394   0.398   0.368   0.385   0.400   0.377   0.361   0.366   0.361   0.363   0.373   0.384   0.388   0.383   0.389   0.367   0.386   0.377   0.374   0.367   0.373   0.357   0.367   0.365   0.359   0.360   0.371   0.397   0.405   0.401   0.388   0.386   0.393   0.396   0.387
[...]
   103.30    0.234   0.230   0.225   0.229   0.231   0.233   0.243   0.234   0.244   0.252   0.251   0.234   0.227   0.226   0.238   0.241   0.237   0.233   0.227   0.225   0.238   0.241   0.238   0.229   0.232   0.233   0.233   0.238   0.245   0.242   0.244   0.244   0.241   0.240   0.239   0.238   0.232   0.239   0.238   0.236   0.242   0.247   0.244   0.252   0.250   0.250   0.242   0.243   0.241   0.247   0.249   0.252   0.249   0.242   0.236   0.237   0.242   0.234   0.242   0.239   0.242   0.239   0.243   0.249   0.253   0.252   0.258   0.240   0.246   0.243   0.249   0.244   0.243   0.244   0.242   0.239   0.252   0.234   0.242   0.235   0.244   0.248   0.249   0.244   0.243   0.237   0.239   0.247   0.238   0.232   0.230   0.231   0.232   0.229   0.229   0.228   0.230   0.236   0.244   0.236   0.248   0.245   0.242   0.245   0.247   0.243   0.231   0.238   0.239   0.240   0.236   0.229   0.235   0.233   0.231   0.236   0.235   0.241   0.230   0.239   0.241   0.240   0.244   0.242   0.245   0.234   0.237   0.236   0.251   0.242   0.247   0.240   0.239   0.241   0.239   0.242   0.239   0.242   0.239   0.233   0.240   0.249   0.246   0.246   0.249   0.251   0.247   0.238   0.238   0.243   0.240   0.230   0.233   0.227   0.221   0.235   0.239   0.243   0.247   0.243   0.241   0.244   0.241   0.241   0.253   0.239   0.236   0.238   0.238   0.240   0.241   0.236   0.237   0.236   0.237   0.237   0.243   0.241   0.238   0.242   0.246   0.239   0.237   0.239   0.239   0.239   0.240   0.237   0.236   0.230   0.233   0.236   0.243
    94.00    0.226   0.223   0.231   0.232   0.235   0.231   0.235   0.232   0.239   0.240   0.245   0.239   0.236   0.231   0.240   0.249   0.246   0.240   0.228   0.229   0.226   0.238   0.241   0.232   0.233   0.236   0.229   0.242   0.240   0.239   0.245   0.249   0.241   0.243   0.237   0.241   0.242   0.236   0.240   0.238   0.239   0.241   0.245   0.246   0.245   0.244   0.244   0.241   0.235   0.242   0.249   0.248   0.245   0.237   0.241   0.240   0.242   0.244   0.237   0.241   0.243   0.243   0.237   0.241   0.245   0.240   0.250   0.244   0.241   0.243   0.243   0.237   0.242   0.249   0.246   0.240   0.240   0.236   0.239   0.237   0.243   0.239   0.257   0.248   0.245   0.238   0.235   0.236   0.239   0.234   0.228   0.235   0.239   0.239   0.229   0.232   0.228   0.240   0.244   0.242   0.242   0.248   0.250   0.244   0.239   0.241   0.235   0.237   0.239   0.232   0.233   0.232   0.229   0.236   0.231   0.238   0.235   0.240   0.239   0.241   0.242   0.242   0.246   0.240   0.240   0.243   0.227   0.238   0.240   0.245   0.243   0.246   0.245   0.247   0.240   0.238   0.245   0.243   0.244   0.238   0.247   0.248   0.252   0.244   0.242   0.245   0.246   0.239   0.232   0.235   0.244   0.238   0.236   0.230   0.229   0.230   0.241   0.250   0.246   0.243   0.247   0.253   0.245   0.244   0.244   0.243   0.243   0.242   0.244   0.243   0.240   0.234   0.233   0.236   0.239   0.246   0.241   0.236   0.237   0.242   0.249   0.239   0.242   0.244   0.244   0.234   0.236   0.244   0.241   0.235   0.240   0.239   0.243
    84.70    0.232   0.227   0.234   0.240   0.238   0.233   0.224   0.235   0.232   0.233   0.235   0.241   0.243   0.238   0.242   0.238   0.236   0.237   0.226   0.221   0.228   0.232   0.234   0.235   0.234   0.238   0.230   0.236   0.240   0.250   0.242   0.236   0.235   0.238   0.233   0.242   0.249   0.250   0.243   0.237   0.232   0.243   0.249   0.245   0.238   0.234   0.239   0.245   0.242   0.240   0.248   0.253   0.241   0.241   0.246   0.245   0.240   0.239   0.234   0.233   0.232   0.237   0.242   0.237   0.238   0.241   0.253   0.244   0.241   0.244   0.246   0.240   0.237   0.239   0.239   0.249   0.239   0.244   0.242   0.249   0.252   0.242   0.242   0.249   0.240   0.234   0.237   0.237   0.245   0.236   0.234   0.228   0.239   0.237   0.233   0.230   0.238   0.235   0.251   0.248   0.243   0.249   0.248   0.247   0.248   0.242   0.239   0.240   0.238   0.237   0.239   0.234   0.231   0.233   0.243   0.241   0.242   0.248   0.243   0.236   0.243   0.235   0.245   0.240   0.244   0.234   0.234   0.246   0.243   0.252   0.249   0.249   0.251   0.247   0.237   0.238   0.234   0.246   0.234   0.237   0.242   0.242   0.241   0.242   0.239   0.236   0.240   0.238   0.236   0.235   0.236   0.238   0.240   0.236   0.227   0.236   0.234   0.240   0.238   0.240   0.236   0.243   0.247   0.247   0.247   0.248   0.244   0.243   0.234   0.244   0.238   0.231   0.232   0.232   0.237   0.233   0.241   0.239   0.238   0.240   0.247   0.247   0.253   0.243   0.240   0.240   0.238   0.241   0.240   0.234   0.231   0.228   0.236
    75.40    0.230   0.230   0.231   0.246   0.236   0.235   0.235   0.228   0.226   0.224   0.238   0.241   0.239   0.245   0.246   0.243   0.235   0.237   0.228   0.234   0.226   0.230   0.227   0.230   0.229   0.232   0.237   0.237   0.232   0.238   0.238   0.239   0.236   0.234   0.237   0.237   0.241   0.250   0.248   0.242   0.237   0.245   0.246   0.247   0.243   0.240   0.240   0.248   0.245   0.245   0.241   0.237   0.232   0.236   0.238   0.244   0.242   0.244   0.238   0.235   0.233   0.227   0.234   0.238   0.240   0.236   0.244   0.250   0.252   0.246   0.250   0.239   0.235   0.244   0.247   0.248   0.242   0.240   0.247   0.245   0.245   0.241   0.248   0.248   0.237   0.242   0.238   0.237   0.240   0.240   0.236   0.233   0.233   0.234   0.227   0.232   0.236   0.240   0.239   0.244   0.244   0.252   0.254   0.248   0.253   0.249   0.250   0.244   0.234   0.243   0.239   0.230   0.233   0.238   0.243   0.238   0.239   0.240   0.238   0.240   0.238   0.239   0.237   0.242   0.239   0.238   0.243   0.242   0.250   0.245   0.248   0.250   0.250   0.244   0.231   0.226   0.233   0.244   0.240   0.236   0.240   0.245   0.242   0.241   0.242   0.240   0.236   0.238   0.231   0.234   0.237   0.247   0.239   0.239   0.238   0.240   0.242   0.242   0.236   0.228   0.235   0.243   0.243   0.240   0.252   0.241   0.243   0.235   0.236   0.231   0.238   0.234   0.234   0.231   0.230   0.240   0.238   0.237   0.237   0.240   0.245   0.244   0.243   0.240   0.237   0.241   0.244   0.237   0.238   0.245   0.230   0.218   0.231
    66.10    0.233   0.236   0.237   0.242   0.240   0.236   0.232   0.227   0.226   0.222   0.231   0.236   0.241   0.237   0.237   0.240   0.235   0.236   0.233   0.225   0.224   0.231   0.222   0.227   0.226   0.226   0.227   0.237   0.236   0.233   0.237   0.243   0.240   0.233   0.237   0.230   0.240   0.247   0.246   0.247   0.239   0.240   0.244   0.240   0.241   0.243   0.254   0.249   0.255   0.245   0.239   0.230   0.239   0.239   0.232   0.244   0.247   0.240   0.240   0.241   0.239   0.237   0.236   0.235   0.233   0.237   0.239   0.245   0.248   0.244   0.243   0.236   0.238   0.248   0.252   0.242   0.241   0.243   0.242   0.239   0.248   0.247   0.246   0.250   0.248   0.236   0.230   0.241   0.244   0.242   0.238   0.230   0.226   0.228   0.237   0.234   0.231   0.241   0.239   0.235   0.241   0.243   0.242   0.245   0.250   0.244   0.249   0.239   0.236   0.242   0.245   0.234   0.244   0.238   0.244   0.245   0.236   0.238   0.241   0.240   0.236   0.233   0.235   0.239   0.239   0.240   0.243   0.238   0.243   0.247   0.251   0.243   0.244   0.236   0.237   0.237   0.230   0.235   0.234   0.237   0.232   0.240   0.236   0.240   0.240   0.239   0.234   0.232   0.237   0.238   0.246   0.241   0.238   0.238   0.238   0.239   0.242   0.239   0.228   0.228   0.234   0.239   0.243   0.235   0.244   0.246   0.238   0.244   0.230   0.233   0.236   0.241   0.230   0.229   0.232   0.231   0.231   0.236   0.234   0.234   0.234   0.243   0.242   0.240   0.234   0.237   0.232   0.237   0.237   0.239   0.223   0.225   0.221
    56.80    0.230   0.234   0.233   0.240   0.240   0.240   0.231   0.236   0.230   0.230   0.231   0.229   0.234   0.234   0.222   0.231   0.233   0.237   0.228   0.223   0.224   0.236   0.228   0.219   0.223   0.234   0.226   0.224   0.235   0.236   0.237   0.237   0.237   0.233   0.231   0.233   0.240   0.241   0.252   0.249   0.240   0.233   0.244   0.238   0.240   0.245   0.248   0.249   0.244   0.243   0.237   0.226   0.230   0.236   0.233   0.238   0.240   0.235   0.242   0.248   0.235   0.230   0.230   0.233   0.234   0.238   0.244   0.239   0.243   0.237   0.236   0.238   0.234   0.235   0.248   0.236   0.237   0.243   0.245   0.246   0.245   0.242   0.247   0.253   0.245   0.245   0.243   0.245   0.239   0.238   0.245   0.235   0.234   0.232   0.241   0.244   0.248   0.240   0.235   0.240   0.236   0.233   0.237   0.242   0.253   0.254   0.250   0.245   0.228   0.242   0.234   0.239   0.247   0.250   0.256   0.242   0.245   0.230   0.237   0.242   0.236   0.229   0.238   0.242   0.236   0.240   0.236   0.238   0.240   0.247   0.247   0.243   0.241   0.239   0.239   0.239   0.237   0.234   0.241   0.236   0.237   0.234   0.239   0.243   0.241   0.242   0.237   0.238   0.233   0.233   0.237   0.239   0.238   0.241   0.240   0.241   0.239   0.242   0.237   0.230   0.233   0.238   0.236   0.239   0.238   0.245   0.240   0.234   0.228   0.230   0.238   0.239   0.236   0.232   0.230   0.230   0.239   0.230   0.237   0.240   0.241   0.238   0.240   0.245   0.237   0.224   0.223   0.232   0.225   0.233   0.229   0.222   0.232
    47.50    0.231   0.233   0.232   0.240   0.234   0.234   0.232   0.240   0.238   0.229   0.231   0.231   0.233   0.226   0.220   0.226   0.233   0.231   0.222   0.224   0.228   0.227   0.228   0.225   0.226   0.231   0.227   0.228   0.238   0.234   0.234   0.233   0.230   0.223   0.230   0.226   0.240   0.247   0.250   0.254   0.242   0.235   0.234   0.244   0.244   0.244   0.241   0.245   0.237   0.236   0.238   0.234   0.231   0.230   0.236   0.235   0.237   0.228   0.241   0.242   0.238   0.233   0.238   0.237   0.233   0.236   0.241   0.238   0.244   0.236   0.241   0.242   0.237   0.239   0.239   0.228   0.230   0.233   0.239   0.246   0.244   0.247   0.240   0.247   0.254   0.250   0.255   0.243   0.241   0.238   0.245   0.239   0.235   0.236   0.240   0.241   0.247   0.239   0.241   0.245   0.238   0.246   0.240   0.238   0.247   0.249   0.247   0.251   0.238   0.236   0.240   0.238   0.247   0.250   0.248   0.243   0.238   0.235   0.243   0.245   0.247   0.247   0.239   0.239   0.234   0.241   0.238   0.237   0.236   0.235   0.240   0.246   0.247   0.248   0.242   0.238   0.240   0.241   0.234   0.234   0.240   0.243   0.242   0.236   0.234   0.238   0.233   0.230   0.237   0.241   0.238   0.239   0.241   0.240   0.242   0.245   0.241   0.239   0.241   0.233   0.238   0.236   0.234   0.239   0.238   0.238   0.233   0.229   0.227   0.236   0.230   0.231   0.232   0.231   0.233   0.242   0.233   0.236   0.243   0.245   0.238   0.237   0.242   0.238   0.233   0.230   0.230   0.228   0.229   0.230   0.225   0.228   0.228
    38.20    0.232   0.234   0.232   0.222   0.234   0.231   0.238   0.237   0.236   0.229   0.228   0.227   0.231   0.222   0.222   0.230   0.235   0.221   0.227   0.230   0.239   0.235   0.221   0.222   0.236   0.229   0.232   0.233   0.235   0.232   0.222   0.226   0.234   0.224   0.221   0.227   0.230   0.238   0.241   0.250   0.241   0.233   0.235   0.227   0.234   0.234   0.236   0.231   0.236   0.232   0.229   0.229   0.226   0.231   0.238   0.243   0.242   0.237   0.248   0.240   0.228   0.228   0.234   0.237   0.241   0.241   0.248   0.251   0.252   0.244   0.238   0.229   0.237   0.239   0.235   0.229   0.230   0.233   0.240   0.241   0.238   0.242   0.234   0.245   0.251   0.245   0.249   0.244   0.251   0.247   0.237   0.235   0.235   0.236   0.238   0.237   0.242   0.249   0.240   0.236   0.241   0.239   0.242   0.239   0.244   0.252   0.249   0.251   0.244   0.234   0.238   0.247   0.244   0.249   0.243   0.243   0.241   0.235   0.234   0.236   0.244   0.243   0.242   0.246   0.242   0.238   0.241   0.235   0.242   0.232   0.238   0.246   0.242   0.238   0.235   0.241   0.246   0.239   0.239   0.232   0.233   0.248   0.244   0.240   0.234   0.232   0.239   0.241   0.232   0.233   0.234   0.238   0.237   0.237   0.238   0.240   0.242   0.243   0.239   0.237   0.238   0.243   0.243   0.233   0.237   0.235   0.228   0.223   0.225   0.228   0.232   0.235   0.227   0.231   0.233   0.232   0.239   0.239   0.240   0.242   0.245   0.239   0.243   0.245   0.231   0.234   0.231   0.228   0.227   0.232   0.236   0.228   0.227
    28.90    0.238   0.241   0.226   0.226   0.225   0.227   0.230   0.238   0.237   0.229   0.228   0.227   0.224   0.222   0.220   0.223   0.233   0.239   0.241   0.237   0.231   0.230   0.222   0.225   0.222   0.235   0.231   0.231   0.236   0.230   0.235   0.225   0.222   0.228   0.227   0.230   0.222   0.232   0.233   0.249   0.245   0.235   0.235   0.229   0.229   0.225   0.233   0.240   0.231   0.237   0.233   0.225   0.230   0.228   0.236   0.243   0.244   0.232   0.242   0.236   0.239   0.232   0.234   0.225   0.231   0.246   0.251   0.243   0.245   0.244   0.239   0.239   0.234   0.230   0.234   0.238   0.235   0.235   0.233   0.240   0.236   0.237   0.239   0.242   0.242   0.245   0.241   0.240   0.239   0.245   0.235   0.237   0.243   0.247   0.246   0.246   0.248   0.244   0.244   0.235   0.237   0.246   0.242   0.245   0.250   0.254   0.257   0.253   0.237   0.240   0.237   0.248   0.245   0.249   0.246   0.241   0.240   0.234   0.235   0.241   0.244   0.245   0.242   0.242   0.242   0.237   0.235   0.242   0.240   0.236   0.234   0.245   0.237   0.243   0.244   0.243   0.247   0.246   0.234   0.234   0.236   0.244   0.243   0.241   0.245   0.243   0.231   0.232   0.230   0.240   0.241   0.246   0.240   0.239   0.237   0.238   0.243   0.238   0.238   0.235   0.242   0.242   0.242   0.234   0.222   0.232   0.229   0.228   0.228   0.227   0.241   0.241   0.240   0.234   0.238   0.236   0.234   0.242   0.235   0.240   0.239   0.237   0.240   0.238   0.230   0.238   0.231   0.225   0.225   0.231   0.237   0.230   0.225
    19.60    0.237   0.231   0.231   0.231   0.229   0.234   0.239   0.238   0.233   0.227   0.230   0.220   0.224   0.222   0.226   0.230   0.230   0.231   0.239   0.240   0.234   0.229   0.222   0.229   0.234   0.238   0.232   0.240   0.240   0.236   0.228   0.229   0.229   0.235   0.234   0.226   0.227   0.233   0.237   0.248   0.251   0.244   0.227   0.235   0.237   0.232   0.229   0.231   0.230   0.244   0.228   0.228   0.232   0.232   0.236   0.236   0.238   0.238   0.244   0.243   0.232   0.232   0.227   0.229   0.235   0.238   0.240   0.246   0.238   0.242   0.247   0.244   0.245   0.237   0.246   0.244   0.240   0.238   0.233   0.230   0.231   0.235   0.237   0.239   0.232   0.234   0.236   0.236   0.241   0.245   0.238   0.235   0.244   0.246   0.238   0.246   0.239   0.231   0.243   0.236   0.235   0.246   0.240   0.241   0.246   0.245   0.258   0.262   0.246   0.249   0.244   0.249   0.250   0.251   0.247   0.241   0.238   0.232   0.231   0.245   0.248   0.243   0.239   0.235   0.240   0.239   0.245   0.244   0.241   0.242   0.232   0.243   0.245   0.239   0.239   0.245   0.243   0.242   0.234   0.234   0.241   0.240   0.236   0.247   0.244   0.245   0.241   0.232   0.240   0.233   0.244   0.247   0.243   0.240   0.237   0.247   0.242   0.237   0.236   0.247   0.235   0.246   0.238   0.228   0.227   0.225   0.226   0.232   0.219   0.222   0.231   0.235   0.232   0.233   0.231   0.231   0.238   0.236   0.233   0.248   0.245   0.236   0.240   0.238   0.236   0.242   0.233   0.231   0.226   0.226   0.232   0.225   0.233
    10.30    0.236   0.244   0.238   0.239   0.231   0.232   0.236   0.237   0.231   0.218   0.226   0.224   0.224   0.225   0.221   0.234   0.233   0.232   0.228   0.234   0.229   0.242   0.233   0.238   0.233   0.237   0.234   0.239   0.237   0.238   0.240   0.236   0.230   0.235   0.231   0.231   0.238   0.236   0.240   0.243   0.244   0.235   0.230   0.231   0.230   0.230   0.238   0.233   0.235   0.231   0.226   0.230   0.224   0.235   0.242   0.236   0.240   0.237   0.239   0.244   0.226   0.229   0.223   0.227   0.228   0.229   0.238   0.239   0.236   0.244   0.248   0.252   0.248   0.245   0.244   0.247   0.239   0.238   0.237   0.232   0.229   0.236   0.240   0.238   0.234   0.233   0.229   0.240   0.238   0.240   0.238   0.239   0.239   0.238   0.238   0.237   0.238   0.222   0.230   0.230   0.240   0.242   0.238   0.243   0.239   0.251   0.264   0.260   0.252   0.247   0.244   0.246   0.242   0.240   0.242   0.243   0.236   0.239   0.238   0.240   0.250   0.246   0.242   0.233   0.236   0.249   0.239   0.246   0.238   0.236   0.243   0.240   0.234   0.237   0.234   0.235   0.234   0.234   0.226   0.232   0.233   0.239   0.233   0.242   0.237   0.248   0.243   0.237   0.236   0.233   0.243   0.246   0.245   0.242   0.241   0.248   0.239   0.229   0.231   0.242   0.247   0.238   0.237   0.231   0.226   0.225   0.232   0.236   0.223   0.226   0.225   0.224   0.233   0.238   0.233   0.234   0.242   0.240   0.235   0.237   0.241   0.237   0.241   0.235   0.239   0.241   0.240   0.232   0.229   0.229   0.230   0.232   0.233
     1.00    0.237   0.237   0.234   0.234   0.230   0.228   0.234   0.227   0.229   0.236   0.229   0.231   0.230   0.233   0.226   0.227   0.234   0.229   0.229   0.238   0.237   0.228   0.234   0.237   0.239   0.236   0.237   0.239   0.241   0.237   0.238   0.236   0.235   0.241   0.236   0.232   0.238   0.243   0.241   0.246   0.232   0.230   0.227   0.230   0.230   0.231   0.228   0.232   0.232   0.232   0.231   0.231   0.235   0.235   0.235   0.236   0.235   0.238   0.239   0.245   0.239   0.233   0.231   0.230   0.232   0.231   0.233   0.233   0.233   0.240   0.249   0.243   0.250   0.247   0.246   0.238   0.237   0.236   0.239   0.242   0.229   0.235   0.234   0.238   0.242   0.244   0.231   0.234   0.238   0.229   0.236   0.237   0.235   0.234   0.233   0.236   0.233   0.241   0.234   0.227   0.238   0.238   0.242   0.249   0.248   0.250   0.249   0.252   0.249   0.251   0.247   0.247   0.242   0.240   0.242   0.235   0.245   0.242   0.242   0.248   0.247   0.246   0.240   0.234   0.239   0.243   0.245   0.241   0.245   0.237   0.243   0.239   0.230   0.233   0.230   0.227   0.223   0.231   0.227   0.230   0.227   0.234   0.242   0.240   0.235   0.240   0.243   0.246   0.245   0.242   0.240   0.248   0.248   0.247   0.249   0.246   0.238   0.238   0.238   0.237   0.241   0.237   0.233   0.234   0.232   0.225   0.221   0.224   0.230   0.227   0.230   0.231   0.225   0.228   0.234   0.239   0.239   0.236   0.234   0.238   0.239   0.244   0.249   0.240   0.231   0.239   0.229   0.237   0.228   0.231   0.235   0.228   0.228

   Mean standard deviation across all grid points:
      u component:    0.459 m/s
      v component:    0.390 m/s
      w component:    0.237 m/s


U-component (X) statistics from the interpolated hub point:

   Mean =   9.7063 m/s
   TI   =   4.4169 %


Processing complete.  2.08011E+05 CPU seconds used.
