
This summary file was generated by TurbSim (from OpenFAST-v3.5.3) on 19-Apr-2025 at 21:59:54.


Runtime Options:

1333634118  Random seed #1
    RANLUX  Type of random number generator
         F  Output binary HH turbulence parameters?
         F  Output formatted turbulence parameters?
         F  Output AeroDyn HH files?
         T  Output AeroDyn FF files?
         F  Output BLADED FF files?
         F  Output tower data?
         F  Output HAWC FF files?
         F  Output formatted FF files?
         T  Output coherent turbulence time step file?
 0 -  NONE  IEC turbulence models scaled to exact specified standard deviation


Turbine/Model Specifications:

        39  Vertical grid-point matrix dimension
       193  Horizontal grid-point matrix dimension
     0.250  Time step [seconds]
   900.000  Analysis time [seconds]
   900.000  Usable output time [seconds]
   177.700  Hub height [m]
   353.400  Grid height [m]
  1785.600  Grid width [m]
     0.000  Vertical flow angle [degrees]
     0.000  Horizontal flow angle [degrees]


Meteorological Boundary Conditions:

    IECKAI  IEC Kaimal spectral model
         1  IEC standard: IEC 61400-1 Ed. 3: 2005
     5.000  Percent turbulence intensity, IEC 61400-1 Ed. 3: 2005
       NTM  IEC Normal Turbulence Model
       N/A  IEC Extreme Turbulence Model (ETM) "c" parameter [m/s]
       USR  Wind profile type
    90.000  Reference height [m]
       N/A  Reference wind speed [m/s]
       N/A  Jet height [m]
       N/A  Power law exponent
     0.030  Surface roughness length [m]


Non-IEC Meteorological Boundary Conditions:

       N/A  Site latitude [degrees]
       N/A  Gradient Richardson number
       N/A  Friction or shear velocity [m/s]
       N/A  Mixing layer depth [m]
       N/A  Mean hub u'w' Reynolds stress
       N/A  Mean hub u'v' Reynolds stress
       N/A  Mean hub v'w' Reynolds stress


Spatial Coherence Models:

       IEC  u-component coherence model
       IEC  v-component coherence model
       IEC  w-component coherence model
(   12.000, 0.353E-03)  u-component coherence parameters
(   12.000, 0.353E-03)  v-component coherence parameters
(   12.000, 0.353E-03)  w-component coherence parameters
       N/A  Coherence exponent


User-Defined Profiles:

  Height   Wind Speed   Horizontal Angle
   (m)        (m/s)          (deg)      
  ------   ----------   ----------------
  353.40      10.00         318.19
  334.80      10.00         321.14
  316.20      10.00         324.10
  297.60      10.00         327.05
  279.00      10.00         330.00
  260.40      10.00         332.95
  241.80      10.00         335.90
  223.20      10.00         338.86
  204.60      10.00         341.81
  186.00      10.00         344.76
  167.40      10.00         347.71
  148.80      10.00         350.67
  130.20      10.00         353.62
  111.60      10.00         356.57
   93.00      10.00         359.52
   74.40      10.00           2.48
   55.80      10.00           5.43
   37.20      10.00           8.38
   18.60      10.00          11.33
    0.00      10.00          14.29


You have requested that the following file(s) be generated:

   /kfs3/scratch/agupta/Projects/RL_Incubator/FinalRuns_Veer/Seed4/./FFSim_Seed4/Cond00_v10.0_PL0.12_TI5.0/Seed_4/Low.bts (AeroDyn/TurbSim full-field wind file)


Turbulence Simulation Scaling Parameter Summary:

   Turbulence model used                            =  IEC Kaimal
   Turbulence characteristic                        =  User-specified
   IEC standard                                     =  IEC 61400-1 Ed. 3: 2005
   Mean wind speed at hub height                    =   10.000 m/s
   Characteristic value of standard deviation       =    0.500 m/s
   Turbulence scale                                 =   42.000 m
   u-component integral scale                       =  340.200 m
   Coherency scale                                  =  340.200 m
   Characteristic value of hub turbulence intensity =    5.000%
   Gradient Richardson number                       =    0.000

   Wind profile type                                =  Linear interpolation of user-defined profile
   Equivalent power law exponent (upper rotor disk) =    0.000
   Mean shear across rotor disk                     =    0.000 (m/s)/m
   Assumed rotor diameter                           =  353.400 m
   Surface roughness length                         =    0.030 m

   Nyquist frequency of turbulent wind field        =    2.000 Hz

   Number of time steps in the FFT                  =     3600
   Number of time steps output                      =     3600
   Number of points simulated                       =     7527


Mean Flow Angles:

   Vertical   =   0.0 degrees
   Horizontal =   0.0 degrees

Mean Wind Speed Profile:

   Height    Wind Speed   Horizontal Angle  Vertical Angle  U-comp (X)   V-comp (Y)   W-comp (Z)
     (m)        (m/s)         (degrees)       (degrees)       (m/s)        (m/s)        (m/s)   
   ------    ----------   ----------------  --------------  ----------   ----------   ----------
    354.4       10.00          318.19            0.00          7.45        -6.67         0.00
    345.1       10.00          319.51            0.00          7.60        -6.49         0.00
    335.8       10.00          320.98            0.00          7.77        -6.30         0.00
    326.5       10.00          322.46            0.00          7.93        -6.09         0.00
    317.2       10.00          323.94            0.00          8.08        -5.89         0.00
    307.9       10.00          325.41            0.00          8.23        -5.68         0.00
    298.6       10.00          326.89            0.00          8.38        -5.46         0.00
    289.3       10.00          328.37            0.00          8.51        -5.25         0.00
    280.0       10.00          329.84            0.00          8.65        -5.02         0.00
    270.7       10.00          331.32            0.00          8.77        -4.80         0.00
    261.4       10.00          332.79            0.00          8.89        -4.57         0.00
    252.1       10.00          334.27            0.00          9.01        -4.34         0.00
    242.8       10.00          335.75            0.00          9.12        -4.11         0.00
    233.5       10.00          337.22            0.00          9.22        -3.87         0.00
    224.2       10.00          338.70            0.00          9.32        -3.63         0.00
    214.9       10.00          340.17            0.00          9.41        -3.39         0.00
    205.6       10.00          341.65            0.00          9.49        -3.15         0.00
    196.3       10.00          343.13            0.00          9.57        -2.90         0.00
    187.0       10.00          344.60            0.00          9.64        -2.66         0.00
    177.7       10.00          346.08            0.00          9.71        -2.41         0.00
    168.4       10.00          347.56            0.00          9.77        -2.15         0.00
    159.1       10.00          349.03            0.00          9.82        -1.90         0.00
    149.8       10.00          350.51            0.00          9.86        -1.65         0.00
    140.5       10.00          351.98            0.00          9.90        -1.39         0.00
    131.2       10.00          353.46            0.00          9.93        -1.14         0.00
    121.9       10.00          354.94            0.00          9.96        -0.88         0.00
    112.6       10.00          356.41            0.00          9.98        -0.63         0.00
    103.3       10.00          357.89            0.00          9.99        -0.37         0.00
     94.0       10.00          359.37            0.00         10.00        -0.11         0.00
     84.7       10.00          360.84            0.00         10.00         0.15         0.00
     75.4       10.00          362.32            0.00          9.99         0.40         0.00
     66.1       10.00            3.79            0.00          9.98         0.66         0.00
     56.8       10.00            5.27            0.00          9.96         0.92         0.00
     47.5       10.00            6.75            0.00          9.93         1.17         0.00
     38.2       10.00            8.22            0.00          9.90         1.43         0.00
     28.9       10.00            9.70            0.00          9.86         1.68         0.00
     19.6       10.00           11.17            0.00          9.81         1.94         0.00
     10.3       10.00           12.65            0.00          9.76         2.19         0.00
      1.0       10.00           14.13            0.00          9.70         2.44         0.00


Harvested Random Seeds after Generation of the Random Numbers:

    377667225 K 1
            0 K 2


Hub-Height Simulated Turbulence Statistical Summary:

   Type of Wind        Min (m/s)   Mean (m/s)    Max (m/s)  Sigma (m/s)       TI (%)
   ----------------    ---------   ----------    ---------  -----------       ------
   Longitudinal (u)         8.44        10.00        11.47        0.504        5.045
   Lateral (v)             -1.01        -0.00         1.03        0.359        3.585
   Vertical (w)            -0.92         0.00         0.83        0.244        2.444
   U component              8.07         9.71        11.27        0.506        5.214
   V component             -3.43        -2.41        -1.26        0.356        3.670
   W component             -0.92         0.00         0.83        0.244        2.518
   Horizontal (U&V)         8.45        10.01        11.48        0.504        5.040
   Total                    8.45        10.01        11.48        0.504        5.036

                       Min Reynolds     Mean Reynolds    Max Reynolds    Correlation
   Product             Stress (m/s)^2   Stress (m/s)^2   Stress (m/s)^2  Coefficient
   ----------------    --------------   --------------   --------------  -----------
   u'w'                     -0.540            -0.002             0.692        -0.016
   u'v'                     -0.836             0.019             1.115         0.106
   v'w'                     -0.489             0.003             0.433         0.030


   Friction Velocity (Ustar)  =      0.044 m/s
   Maximum Instantaneous TKE  =      1.452 (m/s)^2
   Maximum Instantaneous CTKE =      0.579 (m/s)^2


Grid Point Variance Summary:

   Y-coord -892.80 -883.50 -874.20 -864.90 -855.60 -846.30 -837.00 -827.70 -818.40 -809.10 -799.80 -790.50 -781.20 -771.90 -762.60 -753.30 -744.00 -734.70 -725.40 -716.10 -706.80 -697.50 -688.20 -678.90 -669.60 -660.30 -651.00 -641.70 -632.40 -623.10 -613.80 -604.50 -595.20 -585.90 -576.60 -567.30 -558.00 -548.70 -539.40 -530.10 -520.80 -511.50 -502.20 -492.90 -483.60 -474.30 -465.00 -455.70 -446.40 -437.10 -427.80 -418.50 -409.20 -399.90 -390.60 -381.30 -372.00 -362.70 -353.40 -344.10 -334.80 -325.50 -316.20 -306.90 -297.60 -288.30 -279.00 -269.70 -260.40 -251.10 -241.80 -232.50 -223.20 -213.90 -204.60 -195.30 -186.00 -176.70 -167.40 -158.10 -148.80 -139.50 -130.20 -120.90 -111.60 -102.30  -93.00  -83.70  -74.40  -65.10  -55.80  -46.50  -37.20  -27.90  -18.60   -9.30    0.00    9.30   18.60   27.90   37.20   46.50   55.80   65.10   74.40   83.70   93.00  102.30  111.60  120.90  130.20  139.50  148.80  158.10  167.40  176.70  186.00  195.30  204.60  213.90  223.20  232.50  241.80  251.10  260.40  269.70  279.00  288.30  297.60  306.90  316.20  325.50  334.80  344.10  353.40  362.70  372.00  381.30  390.60  399.90  409.20  418.50  427.80  437.10  446.40  455.70  465.00  474.30  483.60  492.90  502.20  511.50  520.80  530.10  539.40  548.70  558.00  567.30  576.60  585.90  595.20  604.50  613.80  623.10  632.40  641.70  651.00  660.30  669.60  678.90  688.20  697.50  706.80  716.10  725.40  734.70  744.00  753.30  762.60  771.90  781.20  790.50  799.80  809.10  818.40  827.70  837.00  846.30  855.60  864.90  874.20  883.50  892.80

   Height   Standard deviation at grid points for the u component:
   354.40    0.419   0.449   0.469   0.496   0.505   0.522   0.511   0.487   0.464   0.469   0.488   0.478   0.457   0.485   0.442   0.460   0.413   0.403   0.392   0.379   0.377   0.374   0.396   0.403   0.405   0.412   0.418   0.421   0.416   0.453   0.421   0.442   0.446   0.453   0.426   0.449   0.440   0.470   0.508   0.519   0.479   0.458   0.476   0.441   0.453   0.438   0.420   0.431   0.421   0.421   0.434   0.428   0.423   0.466   0.467   0.483   0.465   0.439   0.442   0.409   0.403   0.412   0.415   0.449   0.435   0.437   0.451   0.439   0.436   0.422   0.459   0.444   0.410   0.442   0.440   0.432   0.463   0.497   0.516   0.487   0.484   0.482   0.481   0.483   0.483   0.494   0.483   0.490   0.464   0.499   0.493   0.525   0.518   0.554   0.530   0.515   0.502   0.473   0.484   0.512   0.484   0.448   0.479   0.465   0.451   0.459   0.443   0.450   0.465   0.478   0.474   0.485   0.493   0.491   0.514   0.503   0.497   0.478   0.472   0.463   0.457   0.461   0.487   0.444   0.436   0.455   0.451   0.457   0.482   0.450   0.461   0.498   0.533   0.509   0.513   0.518   0.537   0.512   0.504   0.492   0.494   0.500   0.474   0.504   0.474   0.502   0.483   0.493   0.509   0.505   0.509   0.513   0.502   0.490   0.489   0.499   0.515   0.495   0.458   0.449   0.448   0.465   0.447   0.415   0.403   0.437   0.468   0.462   0.441   0.406   0.451   0.444   0.432   0.461   0.440   0.445   0.418   0.446   0.455   0.426   0.420   0.425   0.429   0.477   0.458   0.467   0.456   0.444   0.485   0.491   0.488   0.503   0.485
   345.10    0.452   0.447   0.443   0.477   0.522   0.527   0.496   0.468   0.490   0.489   0.465   0.469   0.493   0.492   0.469   0.462   0.432   0.409   0.390   0.393   0.408   0.370   0.395   0.394   0.401   0.391   0.412   0.418   0.451   0.434   0.446   0.463   0.425   0.449   0.463   0.473   0.469   0.526   0.523   0.501   0.481   0.444   0.443   0.454   0.419   0.437   0.453   0.423   0.408   0.428   0.408   0.411   0.429   0.458   0.482   0.488   0.468   0.454   0.470   0.433   0.399   0.416   0.416   0.447   0.433   0.437   0.434   0.425   0.433   0.450   0.435   0.409   0.412   0.432   0.444   0.412   0.404   0.476   0.515   0.489   0.472   0.498   0.519   0.545   0.461   0.467   0.504   0.491   0.503   0.517   0.497   0.515   0.504   0.499   0.522   0.525   0.508   0.502   0.475   0.509   0.492   0.448   0.427   0.447   0.467   0.433   0.439   0.469   0.467   0.446   0.446   0.451   0.461   0.468   0.480   0.471   0.472   0.462   0.501   0.477   0.462   0.456   0.465   0.475   0.439   0.411   0.453   0.482   0.475   0.471   0.470   0.475   0.491   0.517   0.506   0.507   0.501   0.498   0.491   0.483   0.487   0.517   0.546   0.540   0.526   0.508   0.512   0.504   0.512   0.513   0.482   0.494   0.454   0.473   0.450   0.461   0.486   0.471   0.466   0.438   0.446   0.474   0.437   0.449   0.403   0.436   0.477   0.461   0.447   0.428   0.430   0.445   0.449   0.444   0.438   0.421   0.427   0.433   0.401   0.400   0.400   0.392   0.418   0.447   0.439   0.453   0.455   0.459   0.467   0.525   0.503   0.495   0.487
   335.80    0.495   0.476   0.479   0.518   0.561   0.549   0.533   0.508   0.512   0.494   0.466   0.478   0.469   0.467   0.475   0.466   0.467   0.439   0.403   0.383   0.418   0.383   0.406   0.367   0.394   0.390   0.386   0.417   0.442   0.431   0.431   0.463   0.458   0.469   0.475   0.501   0.519   0.521   0.513   0.493   0.494   0.464   0.459   0.462   0.436   0.453   0.438   0.462   0.444   0.422   0.421   0.414   0.430   0.459   0.459   0.468   0.500   0.492   0.477   0.465   0.441   0.429   0.437   0.455   0.464   0.451   0.441   0.434   0.428   0.447   0.424   0.416   0.413   0.424   0.454   0.457   0.432   0.462   0.485   0.460   0.461   0.498   0.516   0.510   0.485   0.480   0.479   0.465   0.464   0.470   0.503   0.520   0.495   0.473   0.497   0.509   0.513   0.512   0.486   0.507   0.502   0.462   0.448   0.402   0.442   0.459   0.460   0.460   0.450   0.466   0.446   0.450   0.472   0.479   0.475   0.475   0.493   0.491   0.478   0.483   0.428   0.444   0.438   0.452   0.434   0.408   0.463   0.459   0.458   0.476   0.478   0.502   0.485   0.489   0.484   0.501   0.504   0.493   0.496   0.497   0.464   0.508   0.536   0.496   0.526   0.533   0.547   0.523   0.475   0.466   0.493   0.499   0.472   0.458   0.444   0.481   0.485   0.480   0.451   0.470   0.469   0.480   0.474   0.463   0.426   0.440   0.454   0.420   0.403   0.450   0.466   0.459   0.466   0.427   0.447   0.450   0.440   0.407   0.407   0.380   0.404   0.394   0.399   0.428   0.435   0.480   0.435   0.456   0.472   0.503   0.469   0.488   0.503
   326.50    0.517   0.493   0.486   0.537   0.549   0.540   0.578   0.545   0.533   0.530   0.516   0.452   0.467   0.458   0.489   0.491   0.454   0.441   0.413   0.394   0.410   0.399   0.429   0.411   0.398   0.389   0.431   0.437   0.435   0.411   0.409   0.458   0.495   0.475   0.501   0.511   0.525   0.510   0.478   0.505   0.464   0.440   0.454   0.444   0.436   0.427   0.472   0.450   0.438   0.453   0.447   0.426   0.446   0.441   0.477   0.493   0.521   0.510   0.526   0.480   0.480   0.446   0.457   0.452   0.483   0.477   0.470   0.444   0.451   0.464   0.440   0.442   0.416   0.403   0.454   0.457   0.427   0.430   0.440   0.456   0.462   0.439   0.470   0.471   0.461   0.453   0.426   0.456   0.472   0.483   0.466   0.493   0.479   0.469   0.479   0.468   0.489   0.475   0.509   0.525   0.535   0.470   0.457   0.430   0.439   0.455   0.476   0.470   0.475   0.451   0.433   0.440   0.456   0.469   0.433   0.465   0.460   0.495   0.478   0.499   0.456   0.438   0.421   0.431   0.426   0.456   0.452   0.473   0.511   0.512   0.508   0.493   0.525   0.500   0.494   0.500   0.501   0.492   0.505   0.477   0.523   0.505   0.530   0.528   0.507   0.529   0.502   0.517   0.503   0.480   0.493   0.497   0.493   0.461   0.462   0.466   0.472   0.462   0.435   0.456   0.462   0.458   0.479   0.467   0.444   0.435   0.424   0.384   0.384   0.424   0.470   0.470   0.439   0.468   0.476   0.466   0.469   0.430   0.410   0.408   0.403   0.420   0.451   0.417   0.405   0.450   0.463   0.446   0.484   0.499   0.465   0.489   0.519
   317.20    0.518   0.519   0.521   0.521   0.520   0.512   0.548   0.535   0.499   0.530   0.489   0.465   0.466   0.452   0.495   0.466   0.428   0.424   0.424   0.411   0.423   0.429   0.432   0.421   0.441   0.412   0.439   0.423   0.439   0.424   0.435   0.495   0.517   0.491   0.483   0.494   0.497   0.504   0.461   0.489   0.500   0.454   0.454   0.465   0.442   0.459   0.463   0.473   0.467   0.481   0.473   0.474   0.451   0.470   0.514   0.487   0.502   0.536   0.528   0.503   0.522   0.461   0.450   0.479   0.491   0.510   0.467   0.482   0.460   0.425   0.447   0.466   0.429   0.425   0.458   0.432   0.452   0.433   0.413   0.427   0.440   0.447   0.424   0.458   0.457   0.443   0.434   0.442   0.466   0.429   0.442   0.466   0.476   0.426   0.437   0.473   0.485   0.498   0.496   0.543   0.511   0.506   0.481   0.471   0.456   0.469   0.502   0.461   0.464   0.438   0.433   0.434   0.463   0.487   0.462   0.472   0.484   0.486   0.472   0.487   0.496   0.479   0.415   0.425   0.414   0.442   0.429   0.483   0.493   0.500   0.492   0.493   0.496   0.455   0.481   0.509   0.510   0.497   0.476   0.469   0.472   0.491   0.485   0.478   0.488   0.474   0.515   0.481   0.505   0.504   0.501   0.526   0.528   0.487   0.483   0.500   0.452   0.488   0.441   0.481   0.453   0.485   0.467   0.452   0.419   0.410   0.415   0.421   0.379   0.409   0.444   0.462   0.454   0.450   0.501   0.490   0.498   0.456   0.450   0.413   0.404   0.449   0.450   0.427   0.441   0.451   0.456   0.490   0.487   0.513   0.499   0.515   0.507
   307.90    0.481   0.528   0.490   0.495   0.491   0.508   0.512   0.518   0.486   0.501   0.481   0.493   0.462   0.458   0.452   0.455   0.429   0.415   0.411   0.434   0.423   0.421   0.417   0.411   0.417   0.415   0.459   0.476   0.440   0.437   0.440   0.452   0.494   0.495   0.492   0.508   0.504   0.474   0.447   0.495   0.503   0.463   0.465   0.445   0.467   0.471   0.448   0.459   0.464   0.460   0.476   0.498   0.487   0.487   0.512   0.493   0.476   0.515   0.509   0.501   0.516   0.470   0.497   0.495   0.474   0.494   0.502   0.497   0.443   0.430   0.429   0.432   0.433   0.407   0.414   0.393   0.436   0.466   0.442   0.436   0.450   0.466   0.422   0.433   0.434   0.466   0.442   0.466   0.439   0.454   0.464   0.471   0.442   0.460   0.468   0.494   0.448   0.486   0.498   0.517   0.498   0.511   0.500   0.481   0.504   0.497   0.523   0.479   0.450   0.458   0.445   0.445   0.500   0.485   0.496   0.529   0.496   0.496   0.482   0.495   0.516   0.459   0.450   0.440   0.417   0.431   0.445   0.461   0.496   0.480   0.494   0.505   0.488   0.460   0.479   0.519   0.520   0.498   0.462   0.444   0.458   0.462   0.438   0.464   0.486   0.475   0.488   0.502   0.479   0.470   0.486   0.504   0.545   0.516   0.527   0.545   0.508   0.467   0.482   0.498   0.478   0.499   0.455   0.438   0.456   0.440   0.416   0.403   0.414   0.396   0.392   0.453   0.479   0.460   0.479   0.480   0.476   0.447   0.481   0.458   0.449   0.440   0.431   0.452   0.470   0.464   0.456   0.465   0.483   0.484   0.481   0.485   0.531
   298.60    0.484   0.477   0.531   0.504   0.533   0.526   0.538   0.518   0.520   0.526   0.513   0.495   0.473   0.496   0.450   0.458   0.450   0.431   0.449   0.431   0.421   0.394   0.400   0.387   0.417   0.413   0.445   0.449   0.444   0.414   0.436   0.473   0.479   0.490   0.453   0.514   0.533   0.478   0.450   0.462   0.484   0.465   0.455   0.450   0.467   0.490   0.475   0.470   0.458   0.457   0.463   0.465   0.452   0.502   0.485   0.496   0.483   0.496   0.468   0.475   0.495   0.483   0.489   0.470   0.449   0.482   0.485   0.496   0.426   0.411   0.414   0.407   0.431   0.416   0.434   0.403   0.432   0.426   0.418   0.416   0.444   0.489   0.410   0.406   0.427   0.453   0.420   0.433   0.429   0.431   0.436   0.439   0.444   0.453   0.457   0.465   0.477   0.505   0.478   0.519   0.481   0.509   0.512   0.483   0.481   0.455   0.480   0.475   0.450   0.461   0.457   0.510   0.512   0.512   0.501   0.518   0.530   0.472   0.475   0.471   0.492   0.504   0.438   0.433   0.458   0.424   0.448   0.480   0.467   0.461   0.457   0.503   0.501   0.475   0.476   0.515   0.539   0.516   0.453   0.491   0.500   0.478   0.431   0.483   0.497   0.507   0.498   0.499   0.457   0.455   0.456   0.485   0.505   0.523   0.545   0.545   0.526   0.540   0.526   0.517   0.520   0.496   0.464   0.470   0.453   0.454   0.465   0.457   0.438   0.374   0.395   0.423   0.455   0.451   0.460   0.470   0.473   0.485   0.503   0.475   0.453   0.438   0.457   0.473   0.466   0.463   0.439   0.490   0.452   0.438   0.461   0.476   0.505
   289.30    0.487   0.511   0.541   0.559   0.523   0.531   0.517   0.497   0.527   0.524   0.482   0.458   0.423   0.487   0.438   0.457   0.441   0.423   0.432   0.432   0.432   0.410   0.409   0.388   0.386   0.418   0.428   0.462   0.443   0.433   0.462   0.485   0.469   0.490   0.485   0.529   0.537   0.478   0.451   0.467   0.463   0.454   0.452   0.452   0.466   0.479   0.472   0.476   0.481   0.452   0.466   0.463   0.484   0.509   0.498   0.498   0.467   0.476   0.445   0.453   0.471   0.495   0.466   0.500   0.474   0.485   0.475   0.460   0.433   0.399   0.412   0.425   0.431   0.416   0.439   0.445   0.430   0.412   0.429   0.456   0.460   0.498   0.473   0.447   0.431   0.428   0.419   0.423   0.446   0.439   0.448   0.453   0.422   0.459   0.425   0.466   0.470   0.485   0.499   0.485   0.492   0.483   0.487   0.478   0.483   0.444   0.446   0.443   0.473   0.473   0.448   0.487   0.524   0.517   0.507   0.522   0.506   0.495   0.447   0.449   0.455   0.470   0.466   0.438   0.426   0.422   0.438   0.485   0.466   0.454   0.472   0.498   0.466   0.496   0.497   0.499   0.527   0.478   0.462   0.473   0.450   0.448   0.449   0.443   0.463   0.505   0.465   0.478   0.478   0.474   0.458   0.496   0.491   0.502   0.545   0.495   0.512   0.543   0.525   0.529   0.498   0.491   0.464   0.429   0.429   0.455   0.478   0.472   0.453   0.420   0.391   0.406   0.422   0.452   0.443   0.459   0.483   0.501   0.523   0.487   0.458   0.454   0.480   0.482   0.464   0.462   0.474   0.481   0.472   0.445   0.447   0.460   0.500
   280.00    0.523   0.547   0.539   0.536   0.525   0.531   0.489   0.492   0.486   0.479   0.447   0.472   0.472   0.487   0.488   0.479   0.467   0.439   0.439   0.416   0.420   0.397   0.373   0.373   0.408   0.450   0.455   0.439   0.430   0.437   0.434   0.455   0.472   0.486   0.494   0.520   0.514   0.498   0.424   0.431   0.455   0.439   0.417   0.404   0.437   0.445   0.431   0.469   0.477   0.461   0.453   0.459   0.475   0.480   0.509   0.530   0.490   0.460   0.422   0.462   0.484   0.470   0.509   0.486   0.502   0.515   0.503   0.468   0.438   0.435   0.429   0.439   0.435   0.397   0.435   0.424   0.423   0.429   0.429   0.454   0.487   0.497   0.478   0.486   0.461   0.449   0.448   0.427   0.430   0.416   0.411   0.435   0.417   0.431   0.446   0.472   0.494   0.497   0.463   0.471   0.432   0.483   0.459   0.470   0.462   0.443   0.442   0.445   0.465   0.497   0.492   0.524   0.549   0.511   0.513   0.501   0.494   0.506   0.434   0.457   0.468   0.415   0.456   0.465   0.443   0.430   0.481   0.500   0.471   0.453   0.502   0.481   0.471   0.478   0.497   0.494   0.475   0.475   0.464   0.466   0.491   0.459   0.425   0.427   0.442   0.481   0.508   0.487   0.475   0.474   0.454   0.482   0.478   0.485   0.505   0.485   0.513   0.507   0.503   0.508   0.505   0.513   0.486   0.452   0.430   0.461   0.478   0.442   0.435   0.433   0.425   0.427   0.430   0.428   0.456   0.519   0.541   0.550   0.523   0.516   0.486   0.441   0.477   0.493   0.484   0.454   0.451   0.488   0.466   0.476   0.468   0.491   0.494
   270.70    0.507   0.534   0.521   0.534   0.527   0.497   0.495   0.451   0.464   0.467   0.459   0.468   0.470   0.465   0.479   0.472   0.457   0.428   0.423   0.418   0.415   0.412   0.394   0.390   0.408   0.438   0.435   0.426   0.429   0.437   0.441   0.440   0.440   0.470   0.502   0.528   0.481   0.475   0.468   0.437   0.429   0.434   0.437   0.455   0.462   0.458   0.424   0.447   0.470   0.461   0.446   0.449   0.442   0.447   0.474   0.478   0.490   0.466   0.445   0.441   0.465   0.473   0.472   0.498   0.487   0.497   0.508   0.492   0.462   0.457   0.446   0.425   0.432   0.441   0.422   0.419   0.414   0.418   0.447   0.466   0.486   0.496   0.480   0.457   0.452   0.413   0.416   0.456   0.438   0.409   0.400   0.400   0.397   0.424   0.420   0.430   0.446   0.433   0.457   0.444   0.449   0.448   0.463   0.479   0.472   0.481   0.487   0.475   0.469   0.491   0.490   0.475   0.535   0.555   0.494   0.505   0.496   0.504   0.449   0.483   0.426   0.439   0.422   0.466   0.484   0.477   0.463   0.467   0.495   0.501   0.502   0.474   0.483   0.472   0.482   0.508   0.474   0.458   0.425   0.436   0.458   0.435   0.414   0.419   0.450   0.475   0.460   0.464   0.450   0.432   0.455   0.467   0.468   0.471   0.448   0.468   0.515   0.509   0.503   0.527   0.511   0.489   0.501   0.477   0.440   0.454   0.455   0.453   0.426   0.421   0.415   0.403   0.445   0.455   0.483   0.496   0.548   0.564   0.545   0.484   0.469   0.484   0.489   0.499   0.457   0.483   0.466   0.472   0.489   0.486   0.497   0.507   0.494
   261.40    0.503   0.508   0.497   0.493   0.530   0.516   0.505   0.498   0.464   0.454   0.466   0.477   0.446   0.463   0.458   0.442   0.454   0.419   0.433   0.429   0.414   0.381   0.401   0.430   0.439   0.429   0.462   0.434   0.458   0.439   0.427   0.434   0.469   0.446   0.483   0.509   0.498   0.445   0.453   0.435   0.427   0.408   0.424   0.462   0.445   0.439   0.456   0.428   0.435   0.420   0.488   0.471   0.450   0.471   0.470   0.456   0.454   0.457   0.431   0.399   0.426   0.459   0.471   0.466   0.477   0.468   0.444   0.430   0.452   0.459   0.468   0.434   0.466   0.412   0.425   0.411   0.427   0.412   0.469   0.459   0.494   0.532   0.493   0.476   0.469   0.462   0.429   0.411   0.418   0.410   0.421   0.385   0.398   0.393   0.413   0.427   0.463   0.405   0.443   0.472   0.461   0.472   0.456   0.466   0.463   0.478   0.508   0.484   0.478   0.473   0.467   0.488   0.509   0.535   0.502   0.516   0.514   0.509   0.478   0.512   0.459   0.441   0.461   0.455   0.473   0.458   0.468   0.475   0.502   0.506   0.479   0.494   0.475   0.500   0.483   0.507   0.454   0.470   0.470   0.474   0.449   0.471   0.422   0.454   0.463   0.466   0.466   0.465   0.474   0.455   0.462   0.450   0.449   0.449   0.457   0.496   0.517   0.509   0.494   0.501   0.477   0.464   0.468   0.493   0.432   0.418   0.453   0.412   0.424   0.416   0.448   0.460   0.469   0.488   0.501   0.512   0.529   0.545   0.530   0.501   0.503   0.502   0.493   0.489   0.447   0.450   0.452   0.446   0.436   0.463   0.469   0.498   0.491
   252.10    0.478   0.497   0.489   0.454   0.513   0.501   0.525   0.519   0.473   0.446   0.469   0.476   0.472   0.443   0.440   0.429   0.450   0.409   0.440   0.401   0.394   0.397   0.410   0.428   0.433   0.416   0.414   0.433   0.428   0.443   0.442   0.406   0.436   0.458   0.489   0.501   0.498   0.467   0.457   0.472   0.455   0.413   0.438   0.465   0.456   0.475   0.478   0.470   0.455   0.427   0.442   0.433   0.453   0.460   0.490   0.494   0.472   0.463   0.431   0.421   0.426   0.451   0.459   0.467   0.453   0.449   0.425   0.422   0.424   0.412   0.463   0.460   0.442   0.429   0.416   0.437   0.455   0.464   0.469   0.487   0.533   0.505   0.502   0.453   0.472   0.474   0.452   0.434   0.383   0.401   0.402   0.390   0.409   0.407   0.385   0.416   0.435   0.449   0.471   0.475   0.496   0.467   0.486   0.461   0.482   0.489   0.529   0.503   0.503   0.483   0.485   0.494   0.521   0.507   0.491   0.491   0.521   0.521   0.478   0.475   0.483   0.456   0.454   0.502   0.517   0.472   0.488   0.487   0.466   0.487   0.495   0.490   0.472   0.457   0.483   0.479   0.491   0.465   0.485   0.450   0.437   0.464   0.462   0.490   0.465   0.453   0.497   0.504   0.494   0.496   0.501   0.477   0.449   0.451   0.445   0.488   0.519   0.510   0.469   0.494   0.449   0.414   0.438   0.489   0.463   0.424   0.455   0.450   0.448   0.430   0.453   0.496   0.503   0.487   0.514   0.481   0.505   0.536   0.510   0.534   0.515   0.480   0.492   0.480   0.463   0.452   0.463   0.427   0.455   0.459   0.450   0.464   0.486
   242.80    0.474   0.479   0.464   0.471   0.498   0.508   0.517   0.477   0.458   0.447   0.449   0.468   0.455   0.464   0.429   0.440   0.426   0.369   0.405   0.413   0.401   0.389   0.380   0.401   0.433   0.442   0.418   0.428   0.430   0.452   0.444   0.447   0.444   0.461   0.467   0.502   0.505   0.496   0.450   0.485   0.470   0.429   0.409   0.409   0.431   0.450   0.488   0.479   0.441   0.429   0.415   0.412   0.409   0.447   0.439   0.463   0.438   0.433   0.430   0.417   0.414   0.429   0.452   0.450   0.439   0.443   0.446   0.414   0.461   0.471   0.469   0.448   0.469   0.456   0.461   0.422   0.438   0.460   0.462   0.508   0.538   0.505   0.490   0.490   0.460   0.470   0.451   0.418   0.405   0.390   0.396   0.421   0.421   0.431   0.414   0.453   0.454   0.443   0.449   0.480   0.521   0.495   0.479   0.553   0.499   0.529   0.514   0.562   0.530   0.494   0.530   0.498   0.486   0.503   0.488   0.492   0.495   0.505   0.492   0.491   0.498   0.470   0.485   0.488   0.510   0.450   0.450   0.482   0.466   0.458   0.475   0.464   0.477   0.471   0.469   0.494   0.489   0.468   0.470   0.477   0.491   0.492   0.467   0.472   0.501   0.498   0.523   0.478   0.485   0.534   0.515   0.518   0.483   0.442   0.442   0.448   0.495   0.532   0.513   0.478   0.446   0.469   0.468   0.474   0.448   0.449   0.464   0.462   0.477   0.458   0.492   0.465   0.497   0.499   0.503   0.503   0.531   0.573   0.519   0.534   0.508   0.486   0.525   0.483   0.508   0.499   0.488   0.495   0.468   0.470   0.474   0.477   0.459
   233.50    0.444   0.471   0.487   0.490   0.513   0.503   0.458   0.456   0.433   0.420   0.407   0.447   0.440   0.449   0.433   0.431   0.396   0.402   0.400   0.435   0.449   0.419   0.376   0.383   0.394   0.422   0.417   0.443   0.429   0.434   0.476   0.468   0.487   0.470   0.492   0.523   0.526   0.494   0.470   0.459   0.477   0.447   0.429   0.414   0.438   0.463   0.463   0.457   0.418   0.372   0.365   0.400   0.393   0.441   0.441   0.452   0.435   0.438   0.428   0.454   0.436   0.438   0.430   0.450   0.460   0.467   0.455   0.456   0.453   0.457   0.458   0.486   0.476   0.486   0.458   0.442   0.433   0.398   0.440   0.484   0.520   0.508   0.499   0.461   0.444   0.442   0.447   0.439   0.436   0.476   0.468   0.420   0.413   0.472   0.455   0.468   0.461   0.429   0.463   0.491   0.535   0.519   0.514   0.525   0.521   0.523   0.516   0.518   0.534   0.528   0.526   0.481   0.502   0.507   0.470   0.498   0.492   0.486   0.477   0.473   0.460   0.438   0.450   0.459   0.490   0.472   0.460   0.484   0.453   0.458   0.462   0.489   0.476   0.462   0.455   0.455   0.451   0.477   0.502   0.479   0.482   0.514   0.471   0.519   0.528   0.498   0.506   0.479   0.511   0.519   0.495   0.496   0.483   0.492   0.470   0.472   0.502   0.513   0.512   0.474   0.489   0.455   0.465   0.461   0.456   0.455   0.452   0.426   0.461   0.482   0.493   0.478   0.469   0.479   0.516   0.535   0.552   0.560   0.563   0.528   0.542   0.501   0.506   0.492   0.489   0.501   0.505   0.489   0.480   0.496   0.509   0.484   0.466
   224.20    0.453   0.507   0.504   0.544   0.493   0.501   0.476   0.450   0.414   0.416   0.441   0.418   0.441   0.436   0.420   0.416   0.411   0.389   0.410   0.426   0.400   0.430   0.385   0.364   0.373   0.387   0.399   0.442   0.446   0.456   0.451   0.446   0.448   0.445   0.512   0.524   0.535   0.490   0.465   0.494   0.449   0.449   0.437   0.450   0.433   0.418   0.467   0.433   0.403   0.391   0.411   0.393   0.411   0.412   0.426   0.426   0.433   0.427   0.455   0.470   0.421   0.446   0.464   0.445   0.454   0.451   0.457   0.440   0.455   0.487   0.476   0.465   0.489   0.499   0.479   0.455   0.434   0.407   0.437   0.467   0.483   0.513   0.478   0.455   0.474   0.458   0.455   0.439   0.457   0.465   0.460   0.429   0.427   0.422   0.473   0.468   0.473   0.451   0.500   0.523   0.528   0.563   0.560   0.518   0.550   0.534   0.526   0.500   0.524   0.508   0.513   0.525   0.502   0.499   0.488   0.474   0.474   0.475   0.459   0.502   0.490   0.497   0.484   0.501   0.486   0.513   0.511   0.488   0.473   0.459   0.473   0.495   0.476   0.467   0.458   0.465   0.457   0.461   0.515   0.505   0.503   0.507   0.518   0.513   0.511   0.479   0.468   0.430   0.457   0.484   0.501   0.470   0.498   0.510   0.490   0.474   0.479   0.498   0.496   0.520   0.507   0.489   0.483   0.418   0.437   0.454   0.467   0.425   0.427   0.440   0.489   0.501   0.470   0.474   0.493   0.495   0.521   0.549   0.555   0.541   0.482   0.472   0.463   0.488   0.509   0.506   0.495   0.486   0.488   0.485   0.494   0.471   0.412
   214.90    0.493   0.524   0.547   0.529   0.496   0.472   0.480   0.453   0.450   0.430   0.443   0.423   0.410   0.447   0.415   0.454   0.454   0.402   0.426   0.426   0.413   0.406   0.380   0.384   0.374   0.387   0.397   0.464   0.457   0.448   0.480   0.455   0.428   0.446   0.485   0.474   0.504   0.516   0.518   0.493   0.503   0.459   0.448   0.442   0.462   0.427   0.416   0.425   0.403   0.398   0.379   0.404   0.415   0.424   0.423   0.447   0.428   0.443   0.444   0.435   0.463   0.455   0.464   0.431   0.429   0.445   0.451   0.433   0.449   0.496   0.517   0.530   0.482   0.479   0.469   0.437   0.446   0.458   0.423   0.422   0.448   0.460   0.451   0.436   0.421   0.440   0.444   0.462   0.465   0.466   0.413   0.423   0.422   0.424   0.470   0.456   0.473   0.478   0.509   0.518   0.505   0.546   0.532   0.521   0.526   0.536   0.551   0.554   0.495   0.517   0.503   0.506   0.507   0.475   0.489   0.433   0.468   0.465   0.501   0.502   0.490   0.476   0.487   0.507   0.493   0.491   0.496   0.492   0.459   0.487   0.453   0.477   0.477   0.489   0.485   0.497   0.452   0.473   0.519   0.480   0.484   0.494   0.512   0.507   0.490   0.433   0.443   0.452   0.473   0.489   0.491   0.447   0.482   0.492   0.509   0.497   0.494   0.503   0.507   0.513   0.488   0.473   0.459   0.471   0.426   0.440   0.444   0.448   0.466   0.459   0.494   0.495   0.502   0.501   0.497   0.455   0.505   0.524   0.544   0.545   0.493   0.468   0.475   0.501   0.501   0.508   0.498   0.469   0.493   0.491   0.505   0.463   0.433
   205.60    0.515   0.558   0.522   0.509   0.460   0.451   0.452   0.445   0.479   0.455   0.454   0.459   0.436   0.420   0.401   0.445   0.417   0.438   0.439   0.380   0.400   0.394   0.378   0.378   0.369   0.368   0.434   0.468   0.508   0.524   0.496   0.469   0.448   0.472   0.489   0.468   0.470   0.497   0.479   0.473   0.501   0.496   0.435   0.454   0.456   0.400   0.412   0.417   0.386   0.376   0.380   0.384   0.428   0.437   0.452   0.445   0.447   0.450   0.445   0.425   0.431   0.446   0.433   0.444   0.492   0.456   0.465   0.466   0.478   0.518   0.520   0.532   0.510   0.504   0.487   0.477   0.466   0.437   0.440   0.429   0.451   0.457   0.429   0.417   0.439   0.427   0.445   0.447   0.429   0.429   0.434   0.416   0.459   0.453   0.457   0.439   0.502   0.485   0.516   0.535   0.496   0.515   0.524   0.499   0.509   0.539   0.571   0.585   0.571   0.560   0.577   0.551   0.492   0.491   0.437   0.468   0.483   0.485   0.491   0.511   0.501   0.517   0.525   0.527   0.540   0.523   0.502   0.498   0.497   0.507   0.496   0.497   0.476   0.480   0.483   0.484   0.472   0.438   0.488   0.480   0.480   0.486   0.502   0.446   0.446   0.410   0.406   0.410   0.440   0.497   0.512   0.466   0.484   0.526   0.524   0.545   0.546   0.547   0.519   0.510   0.481   0.472   0.471   0.444   0.418   0.439   0.433   0.443   0.442   0.445   0.484   0.500   0.510   0.533   0.505   0.478   0.502   0.508   0.516   0.531   0.526   0.471   0.509   0.496   0.470   0.464   0.488   0.473   0.476   0.486   0.483   0.470   0.436
   196.30    0.558   0.522   0.494   0.477   0.474   0.458   0.477   0.467   0.497   0.487   0.451   0.425   0.453   0.435   0.417   0.455   0.437   0.434   0.420   0.408   0.440   0.400   0.403   0.405   0.386   0.406   0.447   0.457   0.488   0.480   0.470   0.453   0.466   0.472   0.466   0.510   0.467   0.462   0.513   0.476   0.500   0.503   0.476   0.457   0.412   0.418   0.431   0.395   0.397   0.408   0.399   0.412   0.428   0.440   0.449   0.447   0.455   0.457   0.454   0.456   0.439   0.429   0.430   0.447   0.461   0.507   0.483   0.472   0.477   0.514   0.504   0.521   0.508   0.493   0.472   0.436   0.433   0.436   0.424   0.425   0.445   0.437   0.424   0.446   0.439   0.437   0.447   0.414   0.410   0.430   0.425   0.418   0.432   0.459   0.463   0.461   0.516   0.505   0.532   0.516   0.479   0.524   0.504   0.530   0.530   0.544   0.543   0.583   0.572   0.561   0.558   0.523   0.519   0.519   0.454   0.475   0.516   0.525   0.492   0.508   0.509   0.530   0.520   0.529   0.523   0.551   0.541   0.551   0.508   0.498   0.487   0.475   0.489   0.489   0.500   0.506   0.477   0.486   0.475   0.496   0.462   0.464   0.471   0.423   0.419   0.395   0.406   0.435   0.460   0.499   0.519   0.520   0.505   0.488   0.545   0.570   0.558   0.542   0.518   0.482   0.472   0.467   0.469   0.466   0.445   0.451   0.443   0.461   0.447   0.448   0.514   0.524   0.548   0.560   0.539   0.507   0.501   0.485   0.503   0.504   0.505   0.472   0.488   0.486   0.486   0.482   0.461   0.426   0.461   0.463   0.471   0.459   0.451
   187.00    0.543   0.516   0.466   0.499   0.489   0.476   0.488   0.461   0.456   0.444   0.435   0.432   0.429   0.399   0.413   0.413   0.427   0.425   0.401   0.389   0.391   0.402   0.421   0.414   0.413   0.416   0.444   0.461   0.451   0.472   0.487   0.478   0.487   0.489   0.486   0.489   0.487   0.487   0.533   0.504   0.516   0.505   0.476   0.446   0.405   0.407   0.402   0.392   0.375   0.392   0.415   0.399   0.418   0.438   0.452   0.432   0.443   0.466   0.445   0.466   0.469   0.465   0.457   0.473   0.475   0.500   0.513   0.485   0.486   0.503   0.493   0.503   0.502   0.458   0.449   0.415   0.442   0.417   0.440   0.452   0.466   0.451   0.454   0.448   0.431   0.429   0.432   0.413   0.438   0.427   0.439   0.427   0.435   0.480   0.502   0.475   0.520   0.501   0.517   0.466   0.496   0.494   0.523   0.521   0.518   0.535   0.548   0.538   0.542   0.550   0.521   0.524   0.510   0.490   0.467   0.439   0.483   0.499   0.501   0.511   0.511   0.538   0.529   0.540   0.552   0.540   0.531   0.565   0.544   0.520   0.493   0.494   0.479   0.475   0.497   0.507   0.483   0.483   0.462   0.500   0.479   0.446   0.485   0.444   0.415   0.411   0.402   0.439   0.446   0.463   0.472   0.489   0.500   0.512   0.568   0.569   0.561   0.514   0.534   0.501   0.451   0.447   0.463   0.457   0.462   0.448   0.473   0.480   0.484   0.457   0.517   0.536   0.510   0.548   0.519   0.497   0.481   0.476   0.468   0.457   0.487   0.457   0.467   0.456   0.475   0.459   0.463   0.432   0.479   0.497   0.481   0.462   0.442
   177.70    0.504   0.459   0.467   0.487   0.489   0.468   0.474   0.485   0.479   0.439   0.451   0.472   0.423   0.400   0.424   0.440   0.433   0.423   0.423   0.377   0.419   0.394   0.422   0.427   0.429   0.445   0.454   0.455   0.476   0.498   0.481   0.495   0.470   0.491   0.483   0.454   0.465   0.518   0.506   0.457   0.492   0.479   0.452   0.469   0.429   0.440   0.426   0.421   0.403   0.399   0.382   0.425   0.439   0.432   0.423   0.451   0.452   0.454   0.443   0.472   0.500   0.516   0.514   0.501   0.494   0.504   0.491   0.494   0.494   0.495   0.512   0.457   0.456   0.457   0.454   0.446   0.438   0.441   0.483   0.448   0.458   0.454   0.445   0.483   0.468   0.453   0.438   0.433   0.410   0.424   0.414   0.474   0.463   0.501   0.474   0.482   0.504   0.502   0.511   0.481   0.493   0.504   0.537   0.524   0.508   0.497   0.490   0.521   0.530   0.532   0.532   0.494   0.473   0.459   0.475   0.475   0.459   0.446   0.477   0.488   0.507   0.514   0.513   0.497   0.520   0.540   0.519   0.556   0.560   0.550   0.506   0.476   0.482   0.460   0.513   0.501   0.520   0.455   0.481   0.488   0.490   0.461   0.465   0.442   0.435   0.421   0.416   0.411   0.436   0.454   0.465   0.483   0.505   0.489   0.525   0.532   0.542   0.516   0.502   0.482   0.461   0.443   0.436   0.465   0.497   0.476   0.469   0.502   0.503   0.459   0.479   0.496   0.492   0.527   0.512   0.502   0.506   0.494   0.498   0.499   0.473   0.474   0.462   0.460   0.473   0.439   0.446   0.429   0.461   0.504   0.525   0.508   0.454
   168.40    0.471   0.462   0.454   0.456   0.485   0.490   0.478   0.490   0.475   0.455   0.438   0.458   0.426   0.403   0.408   0.439   0.429   0.442   0.405   0.429   0.453   0.447   0.429   0.461   0.456   0.484   0.471   0.490   0.501   0.501   0.490   0.485   0.500   0.501   0.458   0.454   0.486   0.493   0.503   0.457   0.493   0.468   0.477   0.435   0.444   0.463   0.470   0.408   0.412   0.375   0.368   0.408   0.440   0.446   0.426   0.403   0.440   0.460   0.491   0.510   0.507   0.532   0.521   0.504   0.496   0.481   0.475   0.485   0.486   0.472   0.485   0.477   0.464   0.476   0.467   0.453   0.463   0.473   0.489   0.489   0.466   0.468   0.469   0.465   0.441   0.472   0.468   0.465   0.451   0.433   0.408   0.473   0.484   0.495   0.461   0.454   0.480   0.465   0.473   0.485   0.483   0.508   0.513   0.499   0.493   0.487   0.480   0.527   0.524   0.509   0.526   0.485   0.475   0.484   0.497   0.483   0.493   0.494   0.501   0.485   0.484   0.476   0.474   0.484   0.486   0.496   0.481   0.530   0.514   0.553   0.513   0.479   0.494   0.491   0.459   0.472   0.503   0.473   0.502   0.503   0.455   0.450   0.434   0.439   0.425   0.447   0.444   0.425   0.431   0.444   0.418   0.472   0.464   0.465   0.496   0.492   0.493   0.507   0.486   0.491   0.454   0.461   0.447   0.474   0.468   0.518   0.481   0.504   0.464   0.482   0.502   0.481   0.488   0.476   0.487   0.454   0.458   0.463   0.484   0.513   0.487   0.462   0.459   0.469   0.466   0.457   0.460   0.462   0.473   0.511   0.539   0.477   0.472
   159.10    0.477   0.472   0.458   0.475   0.490   0.508   0.495   0.476   0.477   0.473   0.472   0.478   0.455   0.471   0.465   0.459   0.442   0.421   0.443   0.436   0.426   0.418   0.407   0.424   0.471   0.509   0.522   0.503   0.496   0.525   0.496   0.471   0.519   0.504   0.477   0.466   0.485   0.469   0.482   0.481   0.463   0.453   0.432   0.419   0.427   0.455   0.464   0.401   0.404   0.398   0.405   0.430   0.410   0.433   0.430   0.424   0.450   0.494   0.493   0.496   0.531   0.496   0.513   0.519   0.526   0.507   0.502   0.483   0.449   0.487   0.504   0.479   0.486   0.508   0.489   0.463   0.471   0.471   0.515   0.524   0.484   0.480   0.476   0.451   0.419   0.476   0.493   0.496   0.458   0.437   0.452   0.485   0.493   0.484   0.495   0.503   0.479   0.478   0.443   0.479   0.482   0.474   0.476   0.471   0.512   0.511   0.502   0.519   0.516   0.497   0.513   0.516   0.473   0.476   0.478   0.505   0.490   0.524   0.510   0.517   0.491   0.451   0.440   0.455   0.446   0.448   0.468   0.490   0.512   0.512   0.511   0.526   0.516   0.500   0.477   0.489   0.447   0.471   0.454   0.462   0.509   0.478   0.432   0.435   0.443   0.429   0.435   0.412   0.441   0.416   0.419   0.429   0.445   0.447   0.475   0.458   0.485   0.500   0.466   0.480   0.462   0.482   0.480   0.486   0.528   0.507   0.467   0.476   0.484   0.492   0.473   0.453   0.453   0.453   0.459   0.453   0.430   0.444   0.456   0.482   0.475   0.457   0.442   0.441   0.462   0.440   0.446   0.486   0.488   0.520   0.522   0.468   0.502
   149.80    0.439   0.459   0.463   0.485   0.491   0.466   0.469   0.462   0.495   0.517   0.526   0.505   0.490   0.483   0.497   0.460   0.430   0.451   0.452   0.456   0.451   0.451   0.448   0.447   0.501   0.496   0.509   0.524   0.549   0.526   0.530   0.527   0.514   0.496   0.465   0.461   0.459   0.471   0.462   0.449   0.451   0.463   0.411   0.401   0.403   0.439   0.459   0.411   0.403   0.396   0.406   0.446   0.438   0.431   0.434   0.454   0.441   0.460   0.491   0.522   0.542   0.514   0.506   0.491   0.490   0.508   0.484   0.445   0.438   0.492   0.520   0.506   0.502   0.515   0.484   0.504   0.465   0.463   0.505   0.502   0.496   0.487   0.474   0.424   0.451   0.438   0.430   0.467   0.476   0.479   0.465   0.496   0.504   0.536   0.523   0.481   0.457   0.440   0.466   0.485   0.483   0.476   0.467   0.456   0.482   0.497   0.476   0.506   0.490   0.496   0.526   0.528   0.469   0.482   0.498   0.528   0.523   0.530   0.520   0.530   0.499   0.493   0.467   0.471   0.454   0.461   0.469   0.485   0.503   0.488   0.454   0.475   0.506   0.500   0.470   0.480   0.469   0.425   0.465   0.501   0.475   0.474   0.443   0.424   0.397   0.416   0.408   0.396   0.430   0.442   0.413   0.449   0.413   0.440   0.445   0.475   0.453   0.486   0.491   0.472   0.456   0.481   0.494   0.477   0.485   0.512   0.520   0.490   0.472   0.470   0.440   0.423   0.438   0.428   0.427   0.420   0.418   0.450   0.454   0.453   0.439   0.422   0.401   0.397   0.407   0.428   0.473   0.516   0.530   0.562   0.523   0.485   0.488
   140.50    0.432   0.447   0.451   0.453   0.493   0.486   0.456   0.469   0.511   0.502   0.508   0.501   0.471   0.501   0.509   0.465   0.433   0.447   0.455   0.462   0.474   0.490   0.489   0.488   0.491   0.490   0.505   0.541   0.522   0.567   0.539   0.511   0.481   0.454   0.446   0.463   0.471   0.491   0.489   0.464   0.457   0.441   0.442   0.437   0.434   0.459   0.471   0.439   0.420   0.412   0.407   0.416   0.431   0.452   0.433   0.451   0.457   0.486   0.501   0.519   0.524   0.530   0.490   0.481   0.465   0.502   0.502   0.498   0.507   0.509   0.530   0.529   0.482   0.487   0.517   0.498   0.471   0.490   0.492   0.494   0.529   0.510   0.493   0.466   0.447   0.455   0.437   0.471   0.488   0.506   0.487   0.523   0.525   0.553   0.501   0.475   0.446   0.456   0.481   0.517   0.488   0.485   0.476   0.460   0.480   0.489   0.496   0.506   0.481   0.460   0.487   0.494   0.479   0.470   0.512   0.557   0.521   0.533   0.529   0.498   0.505   0.474   0.456   0.483   0.492   0.497   0.464   0.473   0.460   0.484   0.492   0.460   0.515   0.512   0.481   0.465   0.500   0.456   0.472   0.494   0.490   0.464   0.457   0.423   0.382   0.403   0.435   0.418   0.441   0.422   0.435   0.442   0.447   0.473   0.497   0.479   0.500   0.505   0.507   0.464   0.468   0.488   0.498   0.482   0.479   0.481   0.512   0.498   0.511   0.436   0.439   0.422   0.446   0.399   0.415   0.393   0.419   0.432   0.438   0.446   0.442   0.423   0.439   0.437   0.411   0.431   0.451   0.493   0.534   0.525   0.496   0.478   0.488
   131.20    0.445   0.475   0.445   0.452   0.486   0.479   0.448   0.479   0.471   0.507   0.516   0.505   0.494   0.503   0.457   0.441   0.403   0.434   0.455   0.483   0.506   0.490   0.489   0.508   0.493   0.499   0.502   0.545   0.559   0.592   0.574   0.522   0.502   0.487   0.470   0.493   0.510   0.535   0.480   0.497   0.456   0.463   0.440   0.427   0.471   0.481   0.464   0.454   0.423   0.413   0.403   0.408   0.430   0.453   0.458   0.482   0.459   0.463   0.507   0.495   0.530   0.545   0.525   0.493   0.504   0.508   0.529   0.528   0.560   0.513   0.537   0.513   0.499   0.534   0.530   0.512   0.495   0.500   0.506   0.490   0.521   0.519   0.490   0.470   0.489   0.482   0.455   0.478   0.507   0.481   0.503   0.551   0.521   0.560   0.500   0.496   0.500   0.483   0.465   0.473   0.484   0.523   0.501   0.478   0.464   0.435   0.452   0.440   0.477   0.483   0.453   0.475   0.484   0.476   0.475   0.526   0.540   0.500   0.497   0.498   0.497   0.480   0.486   0.476   0.472   0.464   0.448   0.446   0.465   0.490   0.481   0.504   0.504   0.459   0.470   0.480   0.495   0.492   0.472   0.492   0.452   0.429   0.452   0.434   0.431   0.403   0.420   0.416   0.441   0.430   0.458   0.463   0.487   0.515   0.476   0.468   0.494   0.499   0.510   0.455   0.447   0.466   0.477   0.456   0.455   0.461   0.492   0.529   0.518   0.480   0.445   0.424   0.419   0.396   0.407   0.397   0.413   0.450   0.467   0.431   0.434   0.451   0.431   0.407   0.408   0.444   0.463   0.487   0.503   0.505   0.533   0.524   0.509
   121.90    0.482   0.510   0.482   0.468   0.502   0.479   0.448   0.450   0.472   0.510   0.513   0.487   0.492   0.485   0.448   0.440   0.457   0.439   0.473   0.509   0.505   0.519   0.526   0.548   0.517   0.553   0.537   0.558   0.580   0.564   0.557   0.511   0.504   0.473   0.474   0.498   0.491   0.518   0.507   0.493   0.485   0.479   0.455   0.495   0.472   0.465   0.459   0.411   0.429   0.431   0.418   0.438   0.472   0.506   0.503   0.498   0.490   0.464   0.506   0.504   0.541   0.541   0.490   0.464   0.489   0.495   0.494   0.538   0.517   0.516   0.503   0.500   0.508   0.510   0.514   0.503   0.496   0.480   0.518   0.526   0.498   0.497   0.487   0.471   0.502   0.482   0.503   0.527   0.514   0.485   0.554   0.576   0.566   0.545   0.509   0.494   0.491   0.490   0.504   0.486   0.504   0.496   0.499   0.485   0.449   0.430   0.413   0.418   0.452   0.459   0.479   0.474   0.487   0.523   0.464   0.489   0.523   0.512   0.509   0.497   0.470   0.487   0.496   0.499   0.489   0.513   0.486   0.469   0.477   0.483   0.503   0.514   0.476   0.488   0.494   0.504   0.529   0.525   0.477   0.480   0.457   0.432   0.445   0.458   0.440   0.409   0.414   0.395   0.412   0.432   0.458   0.480   0.484   0.488   0.463   0.471   0.461   0.467   0.464   0.448   0.445   0.440   0.477   0.462   0.447   0.488   0.498   0.502   0.492   0.465   0.444   0.424   0.457   0.441   0.418   0.406   0.405   0.438   0.413   0.435   0.406   0.428   0.417   0.419   0.434   0.449   0.446   0.478   0.495   0.486   0.480   0.486   0.504
   112.60    0.480   0.512   0.507   0.527   0.531   0.481   0.450   0.485   0.480   0.491   0.505   0.492   0.460   0.433   0.459   0.452   0.460   0.459   0.469   0.506   0.503   0.541   0.534   0.553   0.547   0.553   0.551   0.553   0.562   0.529   0.527   0.504   0.473   0.468   0.501   0.544   0.542   0.561   0.542   0.508   0.498   0.493   0.499   0.491   0.500   0.472   0.439   0.444   0.431   0.441   0.448   0.469   0.484   0.503   0.508   0.506   0.519   0.525   0.467   0.484   0.491   0.494   0.485   0.480   0.487   0.506   0.555   0.562   0.531   0.512   0.501   0.509   0.521   0.507   0.481   0.510   0.518   0.521   0.553   0.499   0.504   0.513   0.519   0.474   0.466   0.500   0.509   0.515   0.538   0.515   0.561   0.582   0.541   0.542   0.543   0.507   0.495   0.467   0.467   0.491   0.491   0.482   0.472   0.439   0.434   0.426   0.422   0.396   0.397   0.450   0.450   0.487   0.469   0.467   0.465   0.499   0.492   0.472   0.512   0.498   0.495   0.466   0.489   0.521   0.529   0.519   0.525   0.497   0.479   0.479   0.521   0.525   0.523   0.506   0.518   0.520   0.528   0.511   0.491   0.464   0.447   0.451   0.471   0.446   0.455   0.430   0.435   0.415   0.428   0.444   0.495   0.484   0.501   0.491   0.475   0.488   0.476   0.472   0.466   0.458   0.446   0.434   0.460   0.451   0.475   0.496   0.538   0.511   0.485   0.460   0.455   0.436   0.440   0.459   0.434   0.410   0.417   0.407   0.397   0.402   0.412   0.420   0.437   0.440   0.418   0.420   0.453   0.467   0.471   0.482   0.461   0.473   0.486
   103.30    0.516   0.522   0.507   0.510   0.481   0.471   0.480   0.502   0.447   0.479   0.494   0.492   0.474   0.450   0.442   0.465   0.467   0.486   0.464   0.489   0.532   0.529   0.562   0.548   0.559   0.549   0.542   0.554   0.553   0.521   0.513   0.516   0.487   0.513   0.508   0.547   0.572   0.544   0.558   0.520   0.492   0.479   0.488   0.513   0.466   0.455   0.458   0.471   0.480   0.462   0.459   0.459   0.497   0.496   0.519   0.513   0.508   0.501   0.481   0.485   0.470   0.471   0.479   0.492   0.501   0.526   0.527   0.532   0.520   0.509   0.508   0.522   0.530   0.536   0.479   0.499   0.503   0.533   0.546   0.519   0.500   0.515   0.529   0.532   0.536   0.522   0.542   0.563   0.538   0.548   0.536   0.550   0.562   0.562   0.525   0.496   0.518   0.488   0.470   0.470   0.483   0.469   0.474   0.414   0.416   0.399   0.422   0.407   0.393   0.423   0.428   0.446   0.457   0.488   0.469   0.499   0.475   0.463   0.492   0.456   0.470   0.478   0.478   0.508   0.502   0.507   0.497   0.510   0.480   0.483   0.518   0.515   0.537   0.548   0.528   0.506   0.533   0.496   0.503   0.455   0.441   0.486   0.509   0.468   0.457   0.424   0.447   0.416   0.428   0.481   0.498   0.507   0.488   0.494   0.466   0.481   0.472   0.496   0.513   0.490   0.467   0.477   0.486   0.479   0.446   0.490   0.487   0.503   0.491   0.481   0.465   0.468   0.476   0.478   0.429   0.440   0.413   0.381   0.383   0.419   0.428   0.439   0.406   0.433   0.435   0.450   0.422   0.445   0.456   0.478   0.486   0.483   0.480
    94.00    0.495   0.493   0.480   0.525   0.498   0.471   0.449   0.478   0.491   0.441   0.467   0.452   0.471   0.446   0.433   0.453   0.475   0.511   0.528   0.486   0.499   0.533   0.532   0.561   0.538   0.561   0.547   0.571   0.562   0.520   0.480   0.496   0.506   0.509   0.512   0.560   0.538   0.542   0.557   0.541   0.487   0.459   0.491   0.499   0.476   0.450   0.443   0.423   0.470   0.459   0.451   0.451   0.508   0.500   0.510   0.488   0.498   0.504   0.501   0.468   0.464   0.493   0.479   0.494   0.535   0.529   0.507   0.489   0.480   0.477   0.487   0.509   0.513   0.501   0.491   0.525   0.522   0.553   0.579   0.583   0.548   0.537   0.539   0.568   0.566   0.571   0.565   0.557   0.539   0.542   0.527   0.537   0.530   0.531   0.500   0.495   0.463   0.479   0.475   0.488   0.479   0.463   0.439   0.423   0.397   0.416   0.406   0.423   0.417   0.412   0.455   0.442   0.469   0.454   0.449   0.458   0.494   0.452   0.432   0.454   0.472   0.464   0.474   0.482   0.468   0.471   0.493   0.502   0.487   0.520   0.510   0.522   0.543   0.535   0.517   0.499   0.529   0.550   0.524   0.506   0.492   0.496   0.488   0.496   0.471   0.465   0.447   0.464   0.446   0.485   0.512   0.541   0.498   0.462   0.464   0.473   0.498   0.545   0.518   0.489   0.483   0.457   0.468   0.462   0.462   0.491   0.478   0.506   0.497   0.466   0.454   0.483   0.470   0.480   0.450   0.439   0.444   0.403   0.430   0.402   0.400   0.414   0.429   0.448   0.442   0.426   0.454   0.429   0.481   0.455   0.456   0.471   0.461
    84.70    0.474   0.476   0.508   0.508   0.507   0.476   0.460   0.451   0.485   0.464   0.453   0.453   0.449   0.425   0.437   0.479   0.472   0.469   0.499   0.503   0.495   0.480   0.506   0.549   0.551   0.580   0.571   0.561   0.552   0.511   0.493   0.485   0.499   0.503   0.512   0.555   0.550   0.536   0.537   0.519   0.506   0.486   0.489   0.494   0.487   0.477   0.470   0.442   0.449   0.477   0.451   0.489   0.540   0.508   0.514   0.516   0.485   0.486   0.488   0.486   0.485   0.474   0.496   0.494   0.532   0.516   0.501   0.498   0.475   0.480   0.476   0.467   0.491   0.488   0.477   0.533   0.566   0.576   0.605   0.557   0.549   0.538   0.545   0.586   0.589   0.595   0.541   0.547   0.545   0.500   0.493   0.492   0.526   0.522   0.520   0.487   0.450   0.473   0.450   0.438   0.472   0.456   0.435   0.410   0.408   0.426   0.410   0.407   0.404   0.414   0.426   0.451   0.422   0.426   0.421   0.449   0.460   0.470   0.439   0.440   0.468   0.478   0.461   0.439   0.440   0.446   0.441   0.462   0.464   0.459   0.477   0.516   0.506   0.538   0.528   0.508   0.524   0.545   0.545   0.517   0.525   0.509   0.522   0.498   0.479   0.475   0.483   0.476   0.460   0.475   0.502   0.542   0.514   0.463   0.456   0.476   0.487   0.515   0.508   0.496   0.495   0.469   0.490   0.469   0.463   0.458   0.465   0.510   0.492   0.498   0.495   0.440   0.448   0.456   0.441   0.429   0.425   0.453   0.472   0.441   0.428   0.424   0.435   0.418   0.460   0.454   0.469   0.477   0.465   0.490   0.475   0.454   0.487
    75.40    0.471   0.489   0.507   0.539   0.514   0.480   0.441   0.433   0.451   0.474   0.464   0.459   0.471   0.439   0.443   0.455   0.446   0.457   0.484   0.521   0.487   0.446   0.506   0.514   0.523   0.521   0.507   0.531   0.556   0.536   0.488   0.486   0.481   0.469   0.524   0.527   0.544   0.553   0.550   0.542   0.515   0.519   0.501   0.507   0.511   0.513   0.516   0.469   0.461   0.460   0.465   0.495   0.539   0.511   0.506   0.500   0.502   0.529   0.504   0.485   0.488   0.494   0.504   0.520   0.526   0.520   0.519   0.498   0.503   0.481   0.489   0.500   0.473   0.473   0.529   0.518   0.549   0.605   0.599   0.572   0.566   0.564   0.549   0.556   0.574   0.547   0.546   0.558   0.524   0.522   0.489   0.474   0.506   0.484   0.496   0.504   0.516   0.471   0.442   0.425   0.454   0.448   0.435   0.427   0.393   0.390   0.418   0.404   0.406   0.421   0.429   0.409   0.427   0.419   0.468   0.467   0.447   0.476   0.486   0.489   0.457   0.469   0.450   0.450   0.439   0.472   0.430   0.464   0.476   0.484   0.479   0.474   0.486   0.520   0.485   0.516   0.564   0.557   0.527   0.542   0.549   0.545   0.520   0.495   0.489   0.485   0.485   0.473   0.476   0.497   0.520   0.520   0.525   0.517   0.500   0.484   0.468   0.483   0.480   0.472   0.481   0.492   0.478   0.458   0.454   0.470   0.458   0.503   0.518   0.473   0.473   0.459   0.430   0.446   0.452   0.422   0.420   0.445   0.431   0.439   0.442   0.468   0.431   0.455   0.456   0.492   0.499   0.489   0.489   0.481   0.505   0.509   0.507
    66.10    0.495   0.465   0.527   0.528   0.508   0.509   0.439   0.430   0.426   0.445   0.428   0.442   0.443   0.460   0.478   0.450   0.429   0.444   0.492   0.493   0.490   0.457   0.485   0.466   0.506   0.519   0.513   0.514   0.516   0.559   0.540   0.529   0.507   0.496   0.504   0.538   0.522   0.536   0.543   0.562   0.538   0.546   0.516   0.525   0.505   0.490   0.508   0.466   0.443   0.435   0.461   0.479   0.495   0.526   0.516   0.460   0.492   0.522   0.513   0.500   0.494   0.490   0.479   0.522   0.526   0.505   0.525   0.485   0.460   0.478   0.518   0.497   0.478   0.470   0.497   0.549   0.554   0.576   0.577   0.572   0.542   0.571   0.581   0.593   0.593   0.565   0.533   0.548   0.541   0.522   0.505   0.481   0.504   0.503   0.517   0.515   0.520   0.478   0.483   0.454   0.429   0.445   0.431   0.421   0.417   0.400   0.411   0.425   0.411   0.397   0.421   0.445   0.407   0.440   0.449   0.461   0.475   0.498   0.482   0.474   0.438   0.453   0.439   0.468   0.473   0.455   0.457   0.455   0.489   0.491   0.470   0.475   0.489   0.506   0.509   0.521   0.528   0.538   0.509   0.531   0.575   0.541   0.505   0.501   0.500   0.503   0.493   0.488   0.484   0.496   0.502   0.525   0.548   0.514   0.492   0.502   0.494   0.489   0.456   0.480   0.472   0.487   0.488   0.456   0.439   0.463   0.465   0.506   0.490   0.476   0.485   0.455   0.438   0.409   0.409   0.394   0.436   0.444   0.427   0.422   0.447   0.448   0.469   0.486   0.496   0.504   0.510   0.485   0.491   0.442   0.481   0.490   0.506
    56.80    0.499   0.517   0.506   0.491   0.455   0.479   0.502   0.450   0.419   0.432   0.433   0.427   0.441   0.484   0.467   0.435   0.425   0.452   0.482   0.469   0.483   0.470   0.482   0.478   0.471   0.496   0.493   0.516   0.516   0.528   0.537   0.502   0.516   0.535   0.530   0.536   0.531   0.546   0.551   0.567   0.517   0.497   0.494   0.513   0.476   0.469   0.465   0.461   0.469   0.424   0.427   0.452   0.469   0.466   0.499   0.496   0.509   0.507   0.480   0.462   0.455   0.457   0.484   0.503   0.514   0.527   0.502   0.502   0.465   0.469   0.466   0.470   0.454   0.485   0.492   0.528   0.585   0.565   0.569   0.570   0.541   0.553   0.579   0.600   0.586   0.588   0.555   0.584   0.534   0.538   0.538   0.519   0.517   0.501   0.496   0.479   0.509   0.534   0.507   0.492   0.471   0.437   0.427   0.430   0.454   0.430   0.441   0.440   0.437   0.431   0.408   0.414   0.409   0.434   0.451   0.460   0.462   0.466   0.505   0.473   0.480   0.466   0.459   0.483   0.493   0.470   0.477   0.447   0.473   0.501   0.493   0.498   0.459   0.519   0.523   0.568   0.519   0.531   0.526   0.530   0.540   0.523   0.517   0.541   0.523   0.534   0.506   0.474   0.476   0.479   0.509   0.476   0.524   0.516   0.534   0.531   0.523   0.477   0.462   0.469   0.470   0.501   0.476   0.444   0.441   0.450   0.448   0.483   0.462   0.485   0.480   0.461   0.418   0.417   0.416   0.403   0.412   0.422   0.422   0.406   0.449   0.456   0.466   0.502   0.495   0.506   0.517   0.495   0.478   0.463   0.463   0.458   0.476
    47.50    0.496   0.513   0.521   0.477   0.491   0.501   0.490   0.495   0.437   0.435   0.460   0.447   0.446   0.483   0.457   0.437   0.462   0.473   0.450   0.451   0.462   0.475   0.449   0.456   0.454   0.458   0.457   0.508   0.516   0.515   0.532   0.536   0.516   0.539   0.565   0.544   0.540   0.533   0.519   0.543   0.509   0.508   0.484   0.496   0.481   0.475   0.464   0.465   0.431   0.439   0.453   0.471   0.449   0.486   0.493   0.493   0.513   0.546   0.526   0.463   0.452   0.458   0.474   0.492   0.507   0.515   0.496   0.484   0.437   0.461   0.436   0.452   0.470   0.473   0.493   0.508   0.550   0.568   0.583   0.565   0.550   0.544   0.583   0.575   0.579   0.571   0.576   0.596   0.564   0.558   0.542   0.532   0.488   0.486   0.493   0.504   0.522   0.520   0.506   0.498   0.477   0.459   0.457   0.450   0.432   0.422   0.435   0.426   0.424   0.433   0.459   0.428   0.407   0.407   0.449   0.473   0.457   0.481   0.495   0.476   0.481   0.500   0.507   0.522   0.473   0.491   0.458   0.440   0.469   0.457   0.441   0.467   0.490   0.535   0.514   0.544   0.545   0.567   0.535   0.544   0.543   0.539   0.544   0.537   0.553   0.522   0.492   0.488   0.469   0.495   0.476   0.486   0.519   0.511   0.519   0.506   0.487   0.458   0.423   0.426   0.424   0.450   0.453   0.425   0.397   0.441   0.440   0.465   0.459   0.480   0.483   0.451   0.428   0.417   0.412   0.400   0.402   0.394   0.423   0.428   0.443   0.457   0.485   0.493   0.516   0.492   0.505   0.496   0.459   0.465   0.433   0.438   0.459
    38.20    0.482   0.514   0.524   0.493   0.494   0.474   0.505   0.490   0.445   0.435   0.469   0.470   0.466   0.465   0.440   0.438   0.440   0.473   0.447   0.451   0.471   0.456   0.463   0.442   0.464   0.478   0.469   0.488   0.521   0.537   0.563   0.550   0.543   0.526   0.567   0.545   0.540   0.539   0.556   0.546   0.499   0.477   0.499   0.473   0.489   0.499   0.466   0.447   0.447   0.447   0.449   0.448   0.477   0.485   0.511   0.508   0.530   0.562   0.519   0.488   0.452   0.447   0.454   0.435   0.471   0.481   0.504   0.489   0.426   0.427   0.447   0.472   0.478   0.482   0.480   0.462   0.499   0.554   0.553   0.527   0.557   0.580   0.563   0.556   0.577   0.597   0.583   0.603   0.547   0.563   0.574   0.539   0.488   0.473   0.496   0.493   0.477   0.507   0.501   0.495   0.465   0.457   0.413   0.418   0.431   0.424   0.425   0.434   0.412   0.416   0.444   0.443   0.439   0.479   0.459   0.468   0.487   0.518   0.501   0.498   0.487   0.524   0.529   0.504   0.474   0.488   0.488   0.458   0.461   0.463   0.409   0.457   0.476   0.483   0.503   0.520   0.533   0.556   0.525   0.519   0.535   0.550   0.541   0.550   0.569   0.510   0.501   0.454   0.470   0.485   0.450   0.487   0.493   0.515   0.498   0.481   0.452   0.447   0.414   0.393   0.426   0.416   0.437   0.421   0.398   0.417   0.453   0.484   0.475   0.471   0.483   0.452   0.428   0.415   0.432   0.397   0.391   0.382   0.410   0.413   0.481   0.469   0.505   0.483   0.481   0.518   0.503   0.493   0.442   0.460   0.435   0.437   0.446
    28.90    0.478   0.473   0.490   0.471   0.470   0.481   0.496   0.521   0.444   0.447   0.485   0.495   0.494   0.455   0.458   0.432   0.446   0.452   0.465   0.449   0.460   0.479   0.455   0.436   0.461   0.486   0.476   0.496   0.510   0.497   0.531   0.526   0.531   0.544   0.543   0.542   0.543   0.516   0.539   0.551   0.528   0.502   0.499   0.510   0.495   0.478   0.488   0.468   0.471   0.424   0.422   0.439   0.444   0.488   0.521   0.500   0.528   0.512   0.500   0.492   0.475   0.472   0.467   0.481   0.464   0.465   0.494   0.462   0.478   0.483   0.472   0.481   0.493   0.472   0.470   0.475   0.530   0.552   0.534   0.566   0.562   0.585   0.590   0.565   0.579   0.585   0.573   0.579   0.550   0.566   0.574   0.514   0.535   0.520   0.480   0.498   0.460   0.477   0.477   0.482   0.495   0.463   0.459   0.439   0.423   0.417   0.397   0.397   0.410   0.430   0.439   0.485   0.467   0.491   0.452   0.440   0.508   0.508   0.518   0.523   0.520   0.523   0.495   0.468   0.438   0.472   0.522   0.481   0.501   0.507   0.463   0.469   0.448   0.474   0.493   0.477   0.463   0.498   0.506   0.508   0.523   0.536   0.541   0.536   0.538   0.524   0.480   0.464   0.476   0.479   0.450   0.491   0.482   0.498   0.531   0.462   0.452   0.432   0.408   0.373   0.384   0.431   0.436   0.430   0.412   0.412   0.445   0.451   0.471   0.482   0.474   0.454   0.449   0.427   0.382   0.400   0.413   0.424   0.400   0.417   0.459   0.446   0.478   0.471   0.480   0.494   0.511   0.443   0.441   0.441   0.439   0.455   0.465
    19.60    0.511   0.498   0.458   0.470   0.468   0.485   0.492   0.463   0.483   0.448   0.490   0.497   0.479   0.480   0.433   0.424   0.440   0.479   0.450   0.479   0.463   0.439   0.421   0.437   0.430   0.445   0.442   0.474   0.485   0.489   0.523   0.532   0.511   0.538   0.607   0.563   0.526   0.534   0.528   0.499   0.502   0.492   0.527   0.530   0.526   0.514   0.477   0.469   0.472   0.436   0.435   0.428   0.451   0.471   0.468   0.498   0.482   0.500   0.488   0.458   0.464   0.465   0.488   0.497   0.499   0.458   0.478   0.502   0.501   0.511   0.498   0.491   0.525   0.501   0.483   0.491   0.543   0.537   0.535   0.544   0.567   0.557   0.540   0.538   0.590   0.590   0.609   0.579   0.577   0.560   0.590   0.528   0.515   0.511   0.517   0.503   0.456   0.464   0.463   0.493   0.488   0.465   0.448   0.459   0.426   0.381   0.395   0.410   0.406   0.431   0.459   0.476   0.507   0.511   0.494   0.513   0.515   0.497   0.521   0.547   0.523   0.522   0.467   0.456   0.480   0.491   0.471   0.484   0.466   0.444   0.459   0.458   0.471   0.473   0.496   0.475   0.510   0.469   0.475   0.498   0.514   0.497   0.536   0.550   0.531   0.533   0.505   0.487   0.470   0.443   0.462   0.441   0.466   0.477   0.533   0.475   0.453   0.407   0.362   0.381   0.384   0.430   0.415   0.446   0.433   0.430   0.433   0.434   0.448   0.494   0.485   0.453   0.427   0.407   0.427   0.440   0.427   0.407   0.405   0.427   0.447   0.457   0.459   0.489   0.491   0.514   0.508   0.507   0.468   0.484   0.469   0.484   0.492
    10.30    0.490   0.479   0.481   0.487   0.498   0.475   0.465   0.478   0.484   0.473   0.474   0.475   0.477   0.464   0.460   0.454   0.450   0.478   0.459   0.460   0.423   0.429   0.435   0.422   0.445   0.401   0.439   0.440   0.482   0.508   0.534   0.488   0.519   0.539   0.570   0.533   0.520   0.533   0.518   0.532   0.493   0.470   0.522   0.532   0.537   0.503   0.493   0.489   0.460   0.442   0.455   0.463   0.439   0.400   0.437   0.461   0.465   0.473   0.471   0.469   0.438   0.429   0.460   0.484   0.504   0.528   0.500   0.505   0.493   0.525   0.505   0.528   0.522   0.510   0.541   0.506   0.530   0.515   0.539   0.532   0.548   0.554   0.516   0.546   0.553   0.596   0.598   0.585   0.578   0.542   0.555   0.529   0.533   0.509   0.514   0.476   0.482   0.471   0.486   0.492   0.484   0.488   0.483   0.487   0.433   0.423   0.419   0.414   0.439   0.469   0.498   0.516   0.533   0.511   0.543   0.514   0.523   0.538   0.528   0.551   0.569   0.547   0.516   0.492   0.474   0.484   0.463   0.481   0.431   0.433   0.427   0.432   0.428   0.433   0.451   0.448   0.471   0.452   0.434   0.481   0.513   0.479   0.515   0.492   0.505   0.500   0.508   0.475   0.448   0.438   0.476   0.500   0.489   0.474   0.500   0.493   0.453   0.407   0.399   0.367   0.376   0.398   0.410   0.408   0.441   0.418   0.403   0.451   0.440   0.462   0.444   0.413   0.421   0.425   0.453   0.436   0.427   0.413   0.404   0.435   0.430   0.443   0.495   0.482   0.493   0.457   0.458   0.481   0.499   0.495   0.472   0.492   0.516
     1.00    0.477   0.482   0.458   0.472   0.493   0.486   0.458   0.473   0.500   0.478   0.493   0.498   0.495   0.489   0.517   0.499   0.472   0.464   0.444   0.461   0.421   0.420   0.419   0.422   0.403   0.422   0.412   0.450   0.475   0.516   0.511   0.493   0.475   0.505   0.524   0.513   0.515   0.492   0.505   0.493   0.482   0.492   0.530   0.521   0.530   0.492   0.493   0.486   0.476   0.478   0.475   0.486   0.464   0.432   0.442   0.434   0.441   0.444   0.483   0.467   0.425   0.433   0.427   0.480   0.508   0.531   0.511   0.497   0.502   0.535   0.530   0.536   0.532   0.531   0.539   0.527   0.553   0.538   0.521   0.567   0.565   0.565   0.570   0.551   0.543   0.581   0.599   0.587   0.530   0.523   0.542   0.502   0.535   0.520   0.465   0.494   0.472   0.494   0.494   0.497   0.486   0.496   0.475   0.483   0.450   0.449   0.474   0.460   0.439   0.480   0.485   0.490   0.531   0.538   0.568   0.554   0.572   0.584   0.568   0.563   0.535   0.527   0.548   0.520   0.483   0.476   0.508   0.493   0.488   0.496   0.492   0.433   0.438   0.459   0.423   0.418   0.440   0.439   0.453   0.491   0.512   0.506   0.500   0.522   0.514   0.540   0.482   0.465   0.429   0.444   0.465   0.503   0.503   0.466   0.479   0.504   0.462   0.434   0.416   0.406   0.404   0.432   0.428   0.441   0.450   0.458   0.465   0.461   0.428   0.443   0.418   0.419   0.419   0.421   0.399   0.423   0.410   0.397   0.423   0.439   0.423   0.451   0.466   0.480   0.467   0.451   0.458   0.469   0.469   0.468   0.474   0.505   0.497

   Height   Standard deviation at grid points for the v component:
   354.40    0.376   0.394   0.376   0.377   0.381   0.364   0.369   0.373   0.385   0.393   0.386   0.377   0.392   0.386   0.397   0.388   0.360   0.332   0.353   0.374   0.370   0.385   0.356   0.367   0.379   0.368   0.370   0.372   0.381   0.386   0.376   0.386   0.371   0.355   0.351   0.367   0.375   0.381   0.386   0.381   0.398   0.397   0.387   0.390   0.368   0.374   0.382   0.369   0.338   0.356   0.337   0.346   0.374   0.340   0.354   0.370   0.354   0.387   0.391   0.381   0.409   0.417   0.435   0.410   0.416   0.426   0.403   0.397   0.415   0.398   0.411   0.394   0.387   0.395   0.401   0.380   0.402   0.383   0.353   0.342   0.377   0.380   0.355   0.329   0.328   0.326   0.329   0.349   0.348   0.357   0.386   0.400   0.396   0.392   0.382   0.393   0.371   0.365   0.365   0.380   0.383   0.386   0.379   0.392   0.400   0.391   0.400   0.408   0.435   0.401   0.402   0.411   0.392   0.387   0.403   0.379   0.365   0.361   0.339   0.338   0.347   0.361   0.347   0.356   0.359   0.347   0.363   0.371   0.378   0.383   0.368   0.348   0.344   0.357   0.356   0.370   0.376   0.390   0.401   0.395   0.409   0.378   0.383   0.386   0.390   0.383   0.393   0.368   0.375   0.379   0.368   0.379   0.405   0.410   0.399   0.375   0.393   0.386   0.414   0.433   0.404   0.442   0.442   0.441   0.443   0.441   0.435   0.417   0.384   0.396   0.376   0.397   0.363   0.392   0.380   0.373   0.343   0.383   0.391   0.358   0.361   0.351   0.377   0.363   0.375   0.373   0.389   0.393   0.408   0.393   0.399   0.409   0.408
   345.10    0.381   0.383   0.382   0.370   0.381   0.367   0.372   0.380   0.397   0.410   0.405   0.386   0.410   0.407   0.393   0.385   0.371   0.350   0.349   0.364   0.378   0.374   0.368   0.381   0.372   0.370   0.365   0.360   0.370   0.374   0.367   0.382   0.382   0.366   0.358   0.364   0.359   0.357   0.370   0.386   0.399   0.389   0.383   0.376   0.382   0.367   0.365   0.337   0.325   0.327   0.329   0.349   0.347   0.355   0.342   0.369   0.364   0.383   0.372   0.383   0.405   0.412   0.436   0.422   0.436   0.423   0.422   0.425   0.393   0.411   0.416   0.392   0.389   0.397   0.402   0.393   0.403   0.368   0.375   0.371   0.379   0.377   0.366   0.345   0.348   0.346   0.345   0.354   0.344   0.369   0.373   0.383   0.398   0.381   0.387   0.375   0.366   0.370   0.382   0.369   0.383   0.389   0.388   0.383   0.380   0.384   0.397   0.401   0.420   0.419   0.403   0.410   0.405   0.397   0.395   0.406   0.389   0.355   0.332   0.337   0.353   0.347   0.368   0.381   0.340   0.345   0.363   0.374   0.385   0.377   0.359   0.360   0.364   0.362   0.361   0.376   0.366   0.380   0.382   0.383   0.417   0.377   0.378   0.392   0.404   0.404   0.378   0.370   0.368   0.390   0.361   0.372   0.384   0.391   0.391   0.382   0.366   0.396   0.402   0.405   0.423   0.426   0.454   0.435   0.425   0.427   0.457   0.434   0.420   0.393   0.382   0.389   0.389   0.368   0.380   0.375   0.363   0.359   0.364   0.365   0.370   0.382   0.374   0.381   0.354   0.379   0.382   0.399   0.422   0.408   0.434   0.426   0.418
   335.80    0.396   0.383   0.364   0.350   0.383   0.382   0.372   0.370   0.385   0.414   0.405   0.377   0.394   0.409   0.397   0.380   0.384   0.376   0.369   0.361   0.394   0.378   0.373   0.373   0.358   0.366   0.371   0.363   0.375   0.386   0.392   0.355   0.375   0.381   0.371   0.377   0.377   0.345   0.358   0.362   0.383   0.386   0.391   0.367   0.371   0.376   0.359   0.340   0.338   0.359   0.349   0.361   0.354   0.345   0.360   0.368   0.367   0.360   0.392   0.380   0.412   0.412   0.424   0.419   0.420   0.411   0.419   0.420   0.425   0.430   0.416   0.404   0.402   0.409   0.393   0.401   0.397   0.379   0.386   0.395   0.369   0.365   0.354   0.324   0.336   0.349   0.357   0.366   0.373   0.355   0.358   0.374   0.396   0.405   0.379   0.373   0.388   0.391   0.374   0.365   0.354   0.374   0.394   0.386   0.371   0.372   0.388   0.397   0.407   0.411   0.396   0.406   0.391   0.390   0.403   0.398   0.385   0.375   0.370   0.369   0.361   0.358   0.383   0.386   0.370   0.368   0.371   0.366   0.377   0.352   0.353   0.365   0.350   0.374   0.384   0.387   0.371   0.392   0.386   0.374   0.377   0.404   0.406   0.386   0.396   0.391   0.364   0.353   0.368   0.378   0.380   0.370   0.364   0.397   0.410   0.390   0.389   0.361   0.388   0.413   0.414   0.415   0.450   0.451   0.435   0.428   0.446   0.423   0.418   0.421   0.407   0.403   0.397   0.394   0.380   0.387   0.360   0.370   0.384   0.389   0.392   0.377   0.362   0.361   0.369   0.379   0.381   0.395   0.428   0.432   0.428   0.430   0.441
   326.50    0.390   0.375   0.385   0.384   0.378   0.365   0.368   0.376   0.395   0.413   0.405   0.402   0.417   0.416   0.404   0.383   0.377   0.365   0.376   0.381   0.364   0.386   0.363   0.382   0.371   0.381   0.356   0.331   0.353   0.359   0.399   0.358   0.362   0.374   0.376   0.370   0.349   0.338   0.357   0.371   0.370   0.386   0.381   0.360   0.347   0.359   0.356   0.346   0.351   0.367   0.346   0.355   0.370   0.373   0.358   0.348   0.361   0.378   0.403   0.425   0.420   0.447   0.439   0.426   0.406   0.412   0.389   0.399   0.398   0.400   0.413   0.396   0.398   0.395   0.401   0.388   0.407   0.369   0.356   0.374   0.363   0.347   0.349   0.335   0.342   0.352   0.355   0.350   0.361   0.358   0.360   0.377   0.382   0.378   0.362   0.365   0.373   0.396   0.363   0.356   0.359   0.378   0.380   0.387   0.408   0.384   0.376   0.386   0.396   0.398   0.409   0.407   0.391   0.397   0.409   0.394   0.365   0.386   0.385   0.359   0.345   0.355   0.375   0.370   0.408   0.379   0.375   0.372   0.389   0.359   0.362   0.355   0.364   0.385   0.389   0.382   0.373   0.384   0.373   0.367   0.375   0.396   0.395   0.390   0.391   0.362   0.383   0.366   0.364   0.380   0.387   0.379   0.380   0.410   0.401   0.392   0.378   0.376   0.390   0.398   0.416   0.440   0.443   0.475   0.452   0.443   0.431   0.436   0.410   0.393   0.402   0.395   0.400   0.387   0.378   0.385   0.380   0.377   0.386   0.401   0.400   0.376   0.354   0.360   0.359   0.391   0.383   0.395   0.403   0.412   0.432   0.433   0.412
[...]
   103.30    0.237   0.236   0.228   0.235   0.238   0.238   0.235   0.234   0.229   0.236   0.242   0.242   0.232   0.234   0.239   0.235   0.236   0.232   0.228   0.230   0.239   0.236   0.230   0.237   0.238   0.239   0.239   0.231   0.230   0.229   0.232   0.227   0.231   0.233   0.231   0.226   0.230   0.236   0.237   0.226   0.226   0.223   0.228   0.234   0.238   0.239   0.244   0.233   0.237   0.239   0.239   0.238   0.238   0.238   0.233   0.240   0.235   0.236   0.243   0.242   0.236   0.235   0.233   0.233   0.227   0.228   0.233   0.242   0.232   0.232   0.231   0.236   0.235   0.235   0.233   0.241   0.241   0.245   0.240   0.236   0.230   0.239   0.236   0.243   0.244   0.246   0.241   0.240   0.240   0.246   0.242   0.239   0.243   0.240   0.238   0.245   0.233   0.233   0.226   0.233   0.233   0.233   0.228   0.230   0.225   0.228   0.226   0.223   0.220   0.234   0.234   0.221   0.232   0.232   0.232   0.232   0.241   0.236   0.231   0.234   0.230   0.225   0.221   0.237   0.239   0.239   0.239   0.235   0.235   0.229   0.231   0.232   0.231   0.223   0.234   0.237   0.236   0.233   0.234   0.244   0.237   0.239   0.245   0.244   0.241   0.241   0.247   0.239   0.237   0.243   0.241   0.248   0.243   0.237   0.246   0.240   0.250   0.239   0.238   0.228   0.237   0.232   0.237   0.245   0.245   0.246   0.248   0.249   0.246   0.250   0.241   0.233   0.240   0.232   0.235   0.234   0.232   0.230   0.234   0.237   0.229   0.233   0.233   0.234   0.236   0.229   0.232   0.236   0.240   0.241   0.252   0.243   0.246
    94.00    0.239   0.240   0.238   0.239   0.238   0.235   0.233   0.236   0.231   0.241   0.237   0.239   0.237   0.229   0.237   0.239   0.236   0.233   0.237   0.233   0.242   0.241   0.234   0.238   0.248   0.236   0.234   0.232   0.231   0.234   0.232   0.232   0.229   0.229   0.236   0.233   0.227   0.230   0.230   0.226   0.215   0.223   0.222   0.219   0.228   0.237   0.247   0.245   0.239   0.238   0.235   0.243   0.241   0.233   0.224   0.237   0.238   0.236   0.237   0.235   0.238   0.237   0.238   0.234   0.231   0.221   0.228   0.238   0.236   0.239   0.243   0.242   0.239   0.228   0.233   0.241   0.235   0.242   0.241   0.236   0.235   0.230   0.237   0.243   0.244   0.245   0.243   0.244   0.249   0.251   0.239   0.237   0.240   0.240   0.228   0.236   0.236   0.233   0.223   0.223   0.231   0.225   0.221   0.221   0.230   0.220   0.221   0.222   0.223   0.231   0.230   0.226   0.231   0.237   0.232   0.229   0.234   0.232   0.229   0.233   0.230   0.231   0.233   0.232   0.236   0.232   0.228   0.223   0.222   0.231   0.225   0.227   0.233   0.226   0.230   0.238   0.242   0.244   0.242   0.240   0.250   0.249   0.245   0.237   0.242   0.244   0.246   0.245   0.242   0.243   0.243   0.245   0.250   0.246   0.248   0.243   0.245   0.242   0.230   0.233   0.232   0.240   0.246   0.241   0.245   0.247   0.235   0.246   0.245   0.239   0.240   0.238   0.243   0.234   0.237   0.239   0.232   0.224   0.229   0.228   0.232   0.233   0.231   0.232   0.233   0.233   0.232   0.231   0.236   0.242   0.244   0.250   0.246
    84.70    0.235   0.222   0.234   0.232   0.234   0.236   0.239   0.238   0.242   0.237   0.247   0.235   0.236   0.235   0.230   0.236   0.236   0.243   0.240   0.235   0.240   0.244   0.240   0.236   0.245   0.240   0.241   0.223   0.236   0.226   0.229   0.227   0.228   0.226   0.227   0.230   0.231   0.232   0.234   0.228   0.214   0.222   0.224   0.230   0.232   0.235   0.237   0.240   0.243   0.240   0.240   0.239   0.235   0.228   0.225   0.232   0.239   0.238   0.233   0.235   0.235   0.230   0.230   0.237   0.242   0.234   0.234   0.231   0.236   0.232   0.233   0.238   0.230   0.232   0.232   0.237   0.245   0.232   0.238   0.234   0.242   0.237   0.239   0.249   0.246   0.245   0.241   0.237   0.245   0.240   0.248   0.233   0.236   0.234   0.235   0.225   0.233   0.225   0.223   0.225   0.226   0.224   0.222   0.222   0.227   0.226   0.230   0.224   0.223   0.231   0.232   0.234   0.231   0.230   0.233   0.231   0.227   0.225   0.232   0.228   0.225   0.233   0.234   0.239   0.232   0.227   0.227   0.228   0.224   0.226   0.231   0.233   0.229   0.234   0.234   0.238   0.242   0.237   0.240   0.244   0.247   0.246   0.247   0.241   0.243   0.242   0.237   0.246   0.248   0.245   0.245   0.244   0.252   0.255   0.244   0.237   0.241   0.238   0.235   0.234   0.235   0.235   0.243   0.240   0.237   0.248   0.245   0.247   0.243   0.241   0.234   0.237   0.237   0.244   0.249   0.246   0.243   0.238   0.230   0.232   0.241   0.242   0.241   0.237   0.233   0.230   0.227   0.234   0.236   0.246   0.244   0.247   0.246
    75.40    0.236   0.229   0.228   0.221   0.231   0.232   0.236   0.244   0.244   0.242   0.245   0.235   0.229   0.238   0.230   0.244   0.243   0.245   0.239   0.238   0.238   0.239   0.244   0.241   0.246   0.242   0.240   0.233   0.236   0.228   0.231   0.236   0.231   0.225   0.226   0.237   0.232   0.235   0.232   0.228   0.226   0.219   0.221   0.234   0.233   0.237   0.241   0.242   0.242   0.237   0.242   0.231   0.229   0.222   0.231   0.240   0.243   0.242   0.242   0.237   0.241   0.236   0.228   0.234   0.234   0.235   0.230   0.231   0.233   0.225   0.235   0.238   0.234   0.236   0.237   0.243   0.248   0.245   0.236   0.236   0.234   0.241   0.248   0.244   0.242   0.245   0.239   0.238   0.237   0.248   0.241   0.243   0.229   0.219   0.223   0.227   0.237   0.232   0.232   0.226   0.227   0.220   0.220   0.214   0.231   0.230   0.232   0.225   0.222   0.226   0.233   0.229   0.230   0.235   0.224   0.230   0.223   0.223   0.231   0.228   0.232   0.230   0.238   0.239   0.241   0.232   0.228   0.232   0.226   0.234   0.232   0.236   0.230   0.235   0.242   0.244   0.241   0.239   0.244   0.245   0.249   0.239   0.246   0.238   0.241   0.235   0.234   0.240   0.235   0.240   0.246   0.249   0.252   0.248   0.242   0.242   0.236   0.230   0.224   0.231   0.230   0.235   0.235   0.231   0.246   0.245   0.242   0.246   0.248   0.241   0.243   0.236   0.241   0.244   0.237   0.239   0.233   0.237   0.235   0.236   0.243   0.233   0.234   0.235   0.232   0.228   0.231   0.226   0.239   0.241   0.244   0.248   0.248
    66.10    0.232   0.228   0.231   0.224   0.232   0.236   0.242   0.241   0.235   0.243   0.231   0.228   0.230   0.239   0.245   0.241   0.248   0.237   0.237   0.236   0.239   0.241   0.237   0.232   0.237   0.249   0.247   0.245   0.239   0.235   0.236   0.238   0.240   0.234   0.234   0.238   0.235   0.228   0.233   0.224   0.214   0.217   0.222   0.224   0.235   0.238   0.239   0.243   0.245   0.240   0.238   0.225   0.226   0.228   0.240   0.238   0.241   0.239   0.245   0.248   0.243   0.237   0.231   0.241   0.235   0.239   0.236   0.230   0.232   0.234   0.237   0.230   0.234   0.239   0.245   0.242   0.244   0.241   0.241   0.242   0.235   0.243   0.243   0.239   0.242   0.242   0.235   0.243   0.237   0.235   0.237   0.232   0.233   0.232   0.223   0.220   0.227   0.227   0.238   0.239   0.235   0.235   0.225   0.218   0.217   0.228   0.229   0.225   0.231   0.229   0.237   0.226   0.229   0.234   0.230   0.226   0.228   0.224   0.228   0.231   0.230   0.230   0.233   0.236   0.233   0.235   0.227   0.224   0.229   0.238   0.240   0.243   0.237   0.242   0.251   0.246   0.238   0.234   0.242   0.243   0.247   0.244   0.236   0.243   0.239   0.233   0.236   0.235   0.235   0.233   0.245   0.254   0.249   0.246   0.246   0.243   0.238   0.233   0.223   0.232   0.227   0.231   0.228   0.232   0.237   0.244   0.239   0.245   0.243   0.243   0.238   0.236   0.241   0.244   0.238   0.236   0.236   0.229   0.239   0.233   0.235   0.234   0.234   0.235   0.230   0.224   0.235   0.239   0.243   0.239   0.234   0.243   0.248
    56.80    0.230   0.230   0.234   0.228   0.246   0.247   0.240   0.239   0.232   0.235   0.238   0.226   0.224   0.234   0.240   0.250   0.247   0.233   0.233   0.229   0.245   0.234   0.232   0.229   0.241   0.246   0.247   0.236   0.234   0.233   0.243   0.234   0.239   0.235   0.237   0.235   0.231   0.231   0.232   0.223   0.215   0.223   0.222   0.227   0.240   0.237   0.237   0.239   0.237   0.233   0.238   0.233   0.231   0.227   0.234   0.237   0.236   0.244   0.241   0.243   0.245   0.235   0.230   0.235   0.237   0.232   0.232   0.228   0.227   0.229   0.237   0.236   0.240   0.240   0.247   0.241   0.243   0.245   0.244   0.240   0.238   0.239   0.239   0.241   0.246   0.244   0.237   0.242   0.238   0.236   0.242   0.234   0.230   0.241   0.234   0.228   0.221   0.228   0.234   0.233   0.235   0.231   0.228   0.225   0.222   0.231   0.239   0.236   0.231   0.221   0.227   0.229   0.223   0.228   0.234   0.228   0.229   0.229   0.228   0.233   0.232   0.232   0.232   0.237   0.234   0.225   0.231   0.229   0.235   0.230   0.236   0.244   0.241   0.251   0.245   0.239   0.245   0.239   0.241   0.242   0.240   0.240   0.239   0.239   0.235   0.235   0.239   0.231   0.234   0.228   0.242   0.251   0.249   0.240   0.245   0.240   0.242   0.235   0.225   0.227   0.229   0.237   0.231   0.232   0.242   0.231   0.237   0.238   0.245   0.238   0.242   0.235   0.235   0.229   0.234   0.241   0.231   0.234   0.234   0.232   0.234   0.229   0.236   0.228   0.218   0.224   0.234   0.240   0.237   0.238   0.235   0.242   0.244
    47.50    0.238   0.241   0.235   0.236   0.240   0.241   0.232   0.238   0.244   0.236   0.234   0.228   0.229   0.233   0.236   0.243   0.239   0.234   0.232   0.233   0.235   0.237   0.243   0.236   0.241   0.242   0.237   0.231   0.237   0.231   0.232   0.234   0.235   0.227   0.237   0.230   0.224   0.224   0.237   0.234   0.226   0.221   0.230   0.231   0.237   0.239   0.230   0.230   0.243   0.239   0.230   0.228   0.234   0.236   0.237   0.243   0.240   0.240   0.244   0.248   0.245   0.237   0.230   0.225   0.232   0.234   0.233   0.239   0.227   0.233   0.232   0.239   0.235   0.240   0.242   0.240   0.245   0.249   0.244   0.241   0.245   0.236   0.237   0.243   0.242   0.241   0.237   0.241   0.237   0.233   0.232   0.232   0.234   0.234   0.234   0.232   0.231   0.231   0.231   0.228   0.237   0.226   0.233   0.228   0.225   0.223   0.226   0.232   0.236   0.233   0.230   0.228   0.221   0.222   0.228   0.230   0.224   0.230   0.238   0.242   0.239   0.245   0.243   0.238   0.234   0.229   0.227   0.227   0.230   0.230   0.240   0.246   0.240   0.242   0.246   0.242   0.247   0.254   0.246   0.239   0.239   0.245   0.253   0.253   0.243   0.241   0.231   0.236   0.237   0.234   0.240   0.250   0.245   0.243   0.234   0.244   0.237   0.237   0.226   0.227   0.227   0.237   0.239   0.241   0.236   0.226   0.231   0.231   0.233   0.234   0.241   0.230   0.229   0.226   0.235   0.237   0.234   0.232   0.230   0.223   0.232   0.228   0.231   0.227   0.230   0.232   0.240   0.239   0.244   0.244   0.238   0.247   0.242
    38.20    0.248   0.242   0.242   0.233   0.229   0.236   0.239   0.240   0.249   0.242   0.236   0.229   0.223   0.233   0.242   0.241   0.237   0.229   0.228   0.229   0.237   0.250   0.245   0.232   0.240   0.237   0.232   0.233   0.237   0.231   0.229   0.243   0.235   0.235   0.232   0.231   0.228   0.226   0.234   0.240   0.232   0.221   0.223   0.225   0.232   0.232   0.223   0.234   0.235   0.240   0.242   0.239   0.236   0.239   0.236   0.241   0.232   0.232   0.244   0.242   0.237   0.235   0.226   0.232   0.228   0.233   0.238   0.239   0.231   0.231   0.234   0.237   0.244   0.240   0.251   0.241   0.238   0.238   0.243   0.244   0.239   0.235   0.233   0.243   0.244   0.240   0.236   0.247   0.238   0.233   0.230   0.223   0.226   0.226   0.226   0.225   0.231   0.234   0.236   0.232   0.224   0.231   0.237   0.228   0.230   0.236   0.236   0.234   0.234   0.235   0.233   0.230   0.223   0.228   0.234   0.235   0.231   0.235   0.237   0.241   0.230   0.237   0.241   0.232   0.227   0.227   0.223   0.235   0.230   0.243   0.238   0.240   0.247   0.247   0.248   0.246   0.250   0.249   0.247   0.238   0.243   0.247   0.255   0.248   0.242   0.241   0.234   0.235   0.241   0.240   0.243   0.243   0.245   0.236   0.232   0.240   0.238   0.249   0.227   0.227   0.232   0.232   0.237   0.243   0.238   0.236   0.242   0.240   0.244   0.236   0.241   0.237   0.239   0.233   0.227   0.240   0.238   0.229   0.229   0.228   0.232   0.239   0.238   0.230   0.223   0.233   0.238   0.240   0.254   0.237   0.242   0.238   0.236
    28.90    0.252   0.250   0.242   0.244   0.234   0.237   0.238   0.233   0.246   0.246   0.240   0.239   0.230   0.230   0.241   0.238   0.234   0.236   0.226   0.232   0.238   0.245   0.241   0.234   0.237   0.236   0.234   0.238   0.242   0.232   0.230   0.241   0.235   0.242   0.241   0.229   0.230   0.233   0.236   0.235   0.236   0.228   0.223   0.228   0.232   0.231   0.226   0.228   0.232   0.241   0.247   0.248   0.248   0.240   0.232   0.235   0.228   0.232   0.235   0.235   0.235   0.232   0.224   0.231   0.227   0.229   0.233   0.236   0.233   0.238   0.242   0.248   0.238   0.243   0.243   0.244   0.238   0.237   0.234   0.230   0.238   0.236   0.235   0.242   0.235   0.238   0.245   0.247   0.237   0.229   0.227   0.228   0.230   0.227   0.221   0.228   0.233   0.233   0.236   0.234   0.222   0.227   0.231   0.224   0.228   0.239   0.234   0.231   0.228   0.232   0.234   0.235   0.233   0.233   0.238   0.237   0.238   0.230   0.229   0.234   0.225   0.236   0.240   0.235   0.229   0.231   0.228   0.233   0.236   0.241   0.245   0.242   0.246   0.241   0.244   0.247   0.244   0.247   0.242   0.239   0.244   0.245   0.253   0.246   0.243   0.251   0.238   0.241   0.236   0.235   0.236   0.237   0.241   0.245   0.231   0.233   0.245   0.242   0.228   0.234   0.230   0.244   0.241   0.254   0.243   0.237   0.240   0.242   0.244   0.243   0.239   0.242   0.235   0.234   0.225   0.236   0.233   0.235   0.235   0.234   0.227   0.239   0.234   0.236   0.230   0.234   0.238   0.244   0.247   0.241   0.242   0.243   0.241
    19.60    0.243   0.247   0.247   0.242   0.242   0.239   0.240   0.241   0.242   0.251   0.241   0.239   0.233   0.229   0.231   0.232   0.242   0.235   0.241   0.237   0.241   0.238   0.240   0.239   0.243   0.240   0.237   0.233   0.236   0.238   0.233   0.240   0.240   0.235   0.233   0.230   0.225   0.233   0.230   0.227   0.230   0.237   0.238   0.241   0.238   0.236   0.230   0.229   0.242   0.249   0.246   0.244   0.248   0.242   0.238   0.231   0.231   0.239   0.237   0.226   0.226   0.226   0.229   0.219   0.234   0.233   0.231   0.233   0.243   0.245   0.240   0.232   0.231   0.243   0.244   0.245   0.241   0.234   0.227   0.233   0.234   0.227   0.239   0.230   0.240   0.240   0.246   0.244   0.239   0.234   0.230   0.227   0.228   0.227   0.231   0.229   0.234   0.230   0.236   0.226   0.232   0.233   0.233   0.238   0.239   0.242   0.239   0.246   0.237   0.239   0.236   0.237   0.239   0.241   0.242   0.233   0.231   0.226   0.224   0.230   0.233   0.229   0.233   0.230   0.234   0.237   0.231   0.229   0.230   0.240   0.249   0.251   0.248   0.247   0.245   0.247   0.249   0.247   0.257   0.246   0.246   0.245   0.239   0.241   0.248   0.254   0.242   0.236   0.234   0.241   0.242   0.243   0.233   0.243   0.240   0.242   0.243   0.242   0.241   0.238   0.236   0.241   0.243   0.257   0.255   0.251   0.249   0.237   0.232   0.236   0.239   0.237   0.241   0.234   0.225   0.235   0.237   0.237   0.238   0.225   0.228   0.230   0.235   0.236   0.239   0.245   0.243   0.241   0.236   0.240   0.244   0.243   0.238
    10.30    0.240   0.245   0.244   0.243   0.243   0.242   0.234   0.240   0.245   0.249   0.241   0.235   0.236   0.239   0.240   0.236   0.239   0.242   0.242   0.246   0.242   0.247   0.247   0.236   0.237   0.246   0.237   0.235   0.235   0.228   0.241   0.242   0.249   0.246   0.239   0.239   0.233   0.240   0.235   0.234   0.235   0.237   0.238   0.238   0.243   0.245   0.243   0.238   0.242   0.246   0.236   0.244   0.239   0.238   0.242   0.241   0.236   0.240   0.239   0.238   0.229   0.224   0.222   0.228   0.230   0.234   0.233   0.233   0.236   0.244   0.238   0.240   0.240   0.249   0.250   0.241   0.238   0.234   0.227   0.232   0.236   0.230   0.230   0.224   0.238   0.242   0.244   0.246   0.245   0.234   0.230   0.230   0.229   0.230   0.229   0.229   0.237   0.228   0.233   0.238   0.229   0.236   0.236   0.238   0.240   0.233   0.236   0.249   0.245   0.245   0.238   0.236   0.235   0.230   0.241   0.237   0.224   0.221   0.224   0.230   0.235   0.231   0.229   0.228   0.232   0.218   0.228   0.234   0.242   0.246   0.250   0.254   0.246   0.250   0.256   0.252   0.247   0.247   0.250   0.251   0.240   0.237   0.247   0.249   0.245   0.246   0.248   0.241   0.234   0.238   0.247   0.241   0.238   0.240   0.241   0.235   0.246   0.248   0.241   0.245   0.242   0.236   0.243   0.251   0.248   0.243   0.240   0.233   0.230   0.235   0.235   0.235   0.232   0.235   0.237   0.232   0.240   0.234   0.227   0.225   0.237   0.239   0.238   0.235   0.246   0.240   0.237   0.239   0.237   0.241   0.247   0.243   0.242
     1.00    0.237   0.236   0.246   0.244   0.245   0.237   0.231   0.235   0.238   0.236   0.242   0.237   0.235   0.240   0.242   0.237   0.239   0.239   0.244   0.241   0.241   0.243   0.242   0.240   0.240   0.237   0.234   0.233   0.236   0.231   0.227   0.238   0.238   0.245   0.238   0.234   0.228   0.240   0.240   0.233   0.238   0.234   0.238   0.240   0.240   0.239   0.240   0.242   0.240   0.240   0.241   0.234   0.235   0.235   0.233   0.234   0.234   0.233   0.247   0.243   0.236   0.224   0.227   0.232   0.240   0.234   0.236   0.236   0.237   0.241   0.242   0.239   0.246   0.246   0.248   0.241   0.238   0.236   0.237   0.239   0.235   0.239   0.226   0.222   0.235   0.238   0.241   0.245   0.240   0.228   0.231   0.238   0.225   0.227   0.236   0.230   0.239   0.228   0.227   0.232   0.231   0.236   0.240   0.241   0.233   0.240   0.243   0.244   0.237   0.231   0.229   0.231   0.239   0.228   0.229   0.232   0.232   0.231   0.224   0.229   0.233   0.237   0.233   0.237   0.234   0.227   0.222   0.220   0.233   0.241   0.240   0.245   0.235   0.242   0.247   0.242   0.242   0.247   0.241   0.240   0.243   0.240   0.248   0.252   0.236   0.242   0.245   0.239   0.241   0.245   0.248   0.244   0.238   0.244   0.237   0.245   0.238   0.248   0.248   0.244   0.236   0.242   0.250   0.245   0.241   0.242   0.231   0.226   0.232   0.239   0.230   0.233   0.239   0.235   0.239   0.232   0.234   0.234   0.237   0.236   0.228   0.229   0.238   0.242   0.240   0.234   0.230   0.236   0.239   0.241   0.248   0.243   0.243

   Mean standard deviation across all grid points:
      u component:    0.475 m/s
      v component:    0.382 m/s
      w component:    0.235 m/s


U-component (X) statistics from the interpolated hub point:

   Mean =   9.7063 m/s
   TI   =   5.2138 %


Processing complete.  2.16655E+05 CPU seconds used.
