
This summary file was generated by TurbSim (from OpenFAST-v3.5.3) on 19-Apr-2025 at 20:49:42.


Runtime Options:

**********  Random seed #1
    RANLUX  Type of random number generator
         F  Output binary HH turbulence parameters?
         F  Output formatted turbulence parameters?
         F  Output AeroDyn HH files?
         T  Output AeroDyn FF files?
         F  Output BLADED FF files?
         F  Output tower data?
         F  Output HAWC FF files?
         F  Output formatted FF files?
         T  Output coherent turbulence time step file?
 0 -  NONE  IEC turbulence models scaled to exact specified standard deviation


Turbine/Model Specifications:

        39  Vertical grid-point matrix dimension
       193  Horizontal grid-point matrix dimension
     0.250  Time step [seconds]
   900.000  Analysis time [seconds]
   900.000  Usable output time [seconds]
   177.700  Hub height [m]
   353.400  Grid height [m]
  1785.600  Grid width [m]
     0.000  Vertical flow angle [degrees]
     0.000  Horizontal flow angle [degrees]


Meteorological Boundary Conditions:

    IECKAI  IEC Kaimal spectral model
         1  IEC standard: IEC 61400-1 Ed. 3: 2005
     5.000  Percent turbulence intensity, IEC 61400-1 Ed. 3: 2005
       NTM  IEC Normal Turbulence Model
       N/A  IEC Extreme Turbulence Model (ETM) "c" parameter [m/s]
       USR  Wind profile type
    90.000  Reference height [m]
       N/A  Reference wind speed [m/s]
       N/A  Jet height [m]
       N/A  Power law exponent
     0.030  Surface roughness length [m]


Non-IEC Meteorological Boundary Conditions:

       N/A  Site latitude [degrees]
       N/A  Gradient Richardson number
       N/A  Friction or shear velocity [m/s]
       N/A  Mixing layer depth [m]
       N/A  Mean hub u'w' Reynolds stress
       N/A  Mean hub u'v' Reynolds stress
       N/A  Mean hub v'w' Reynolds stress


Spatial Coherence Models:

       IEC  u-component coherence model
       IEC  v-component coherence model
       IEC  w-component coherence model
(   12.000, 0.353E-03)  u-component coherence parameters
(   12.000, 0.353E-03)  v-component coherence parameters
(   12.000, 0.353E-03)  w-component coherence parameters
       N/A  Coherence exponent


User-Defined Profiles:

  Height   Wind Speed   Horizontal Angle
   (m)        (m/s)          (deg)      
  ------   ----------   ----------------
  353.40      10.00         318.19
  334.80      10.00         321.14
  316.20      10.00         324.10
  297.60      10.00         327.05
  279.00      10.00         330.00
  260.40      10.00         332.95
  241.80      10.00         335.90
  223.20      10.00         338.86
  204.60      10.00         341.81
  186.00      10.00         344.76
  167.40      10.00         347.71
  148.80      10.00         350.67
  130.20      10.00         353.62
  111.60      10.00         356.57
   93.00      10.00         359.52
   74.40      10.00           2.48
   55.80      10.00           5.43
   37.20      10.00           8.38
   18.60      10.00          11.33
    0.00      10.00          14.29


You have requested that the following file(s) be generated:

   /kfs3/scratch/agupta/Projects/RL_Incubator/FinalRuns_Veer/Seed4/./FFSim_Seed4/Cond00_v10.0_PL0.12_TI5.0/Seed_2/Low.bts (AeroDyn/TurbSim full-field wind file)


Turbulence Simulation Scaling Parameter Summary:

   Turbulence model used                            =  IEC Kaimal
   Turbulence characteristic                        =  User-specified
   IEC standard                                     =  IEC 61400-1 Ed. 3: 2005
   Mean wind speed at hub height                    =   10.000 m/s
   Characteristic value of standard deviation       =    0.500 m/s
   Turbulence scale                                 =   42.000 m
   u-component integral scale                       =  340.200 m
   Coherency scale                                  =  340.200 m
   Characteristic value of hub turbulence intensity =    5.000%
   Gradient Richardson number                       =    0.000

   Wind profile type                                =  Linear interpolation of user-defined profile
   Equivalent power law exponent (upper rotor disk) =    0.000
   Mean shear across rotor disk                     =    0.000 (m/s)/m
   Assumed rotor diameter                           =  353.400 m
   Surface roughness length                         =    0.030 m

   Nyquist frequency of turbulent wind field        =    2.000 Hz

   Number of time steps in the FFT                  =     3600
   Number of time steps output                      =     3600
   Number of points simulated                       =     7527


Mean Flow Angles:

   Vertical   =   0.0 degrees
   Horizontal =   0.0 degrees

Mean Wind Speed Profile:

   Height    Wind Speed   Horizontal Angle  Vertical Angle  U-comp (X)   V-comp (Y)   W-comp (Z)
     (m)        (m/s)         (degrees)       (degrees)       (m/s)        (m/s)        (m/s)   
   ------    ----------   ----------------  --------------  ----------   ----------   ----------
    354.4       10.00          318.19            0.00          7.45        -6.67         0.00
    345.1       10.00          319.51            0.00          7.60        -6.49         0.00
    335.8       10.00          320.98            0.00          7.77        -6.30         0.00
    326.5       10.00          322.46            0.00          7.93        -6.09         0.00
    317.2       10.00          323.94            0.00          8.08        -5.89         0.00
    307.9       10.00          325.41            0.00          8.23        -5.68         0.00
    298.6       10.00          326.89            0.00          8.38        -5.46         0.00
    289.3       10.00          328.37            0.00          8.51        -5.25         0.00
    280.0       10.00          329.84            0.00          8.65        -5.02         0.00
    270.7       10.00          331.32            0.00          8.77        -4.80         0.00
    261.4       10.00          332.79            0.00          8.89        -4.57         0.00
    252.1       10.00          334.27            0.00          9.01        -4.34         0.00
    242.8       10.00          335.75            0.00          9.12        -4.11         0.00
    233.5       10.00          337.22            0.00          9.22        -3.87         0.00
    224.2       10.00          338.70            0.00          9.32        -3.63         0.00
    214.9       10.00          340.17            0.00          9.41        -3.39         0.00
    205.6       10.00          341.65            0.00          9.49        -3.15         0.00
    196.3       10.00          343.13            0.00          9.57        -2.90         0.00
    187.0       10.00          344.60            0.00          9.64        -2.66         0.00
    177.7       10.00          346.08            0.00          9.71        -2.41         0.00
    168.4       10.00          347.56            0.00          9.77        -2.15         0.00
    159.1       10.00          349.03            0.00          9.82        -1.90         0.00
    149.8       10.00          350.51            0.00          9.86        -1.65         0.00
    140.5       10.00          351.98            0.00          9.90        -1.39         0.00
    131.2       10.00          353.46            0.00          9.93        -1.14         0.00
    121.9       10.00          354.94            0.00          9.96        -0.88         0.00
    112.6       10.00          356.41            0.00          9.98        -0.63         0.00
    103.3       10.00          357.89            0.00          9.99        -0.37         0.00
     94.0       10.00          359.37            0.00         10.00        -0.11         0.00
     84.7       10.00          360.84            0.00         10.00         0.15         0.00
     75.4       10.00          362.32            0.00          9.99         0.40         0.00
     66.1       10.00            3.79            0.00          9.98         0.66         0.00
     56.8       10.00            5.27            0.00          9.96         0.92         0.00
     47.5       10.00            6.75            0.00          9.93         1.17         0.00
     38.2       10.00            8.22            0.00          9.90         1.43         0.00
     28.9       10.00            9.70            0.00          9.86         1.68         0.00
     19.6       10.00           11.17            0.00          9.81         1.94         0.00
     10.3       10.00           12.65            0.00          9.76         2.19         0.00
      1.0       10.00           14.13            0.00          9.70         2.44         0.00


Harvested Random Seeds after Generation of the Random Numbers:

    377667225 K 1
            0 K 2


Hub-Height Simulated Turbulence Statistical Summary:

   Type of Wind        Min (m/s)   Mean (m/s)    Max (m/s)  Sigma (m/s)       TI (%)
   ----------------    ---------   ----------    ---------  -----------       ------
   Longitudinal (u)         8.60        10.00        11.51        0.506        5.058
   Lateral (v)             -1.20         0.00         1.38        0.390        3.896
   Vertical (w)            -1.01         0.00         0.89        0.246        2.464
   U component              8.32         9.71        11.20        0.495        5.104
   V component             -3.75        -2.41        -1.12        0.403        4.149
   W component             -1.01         0.00         0.89        0.246        2.538
   Horizontal (U&V)         8.60        10.01        11.51        0.507        5.063
   Total                    8.60        10.01        11.51        0.506        5.056

                       Min Reynolds     Mean Reynolds    Max Reynolds    Correlation
   Product             Stress (m/s)^2   Stress (m/s)^2   Stress (m/s)^2  Coefficient
   ----------------    --------------   --------------   --------------  -----------
   u'w'                     -0.830            -0.000             0.842        -0.001
   u'v'                     -1.373            -0.009             0.848        -0.047
   v'w'                     -0.779            -0.006             0.550        -0.058


   Friction Velocity (Ustar)  =      0.011 m/s
   Maximum Instantaneous TKE  =      1.502 (m/s)^2
   Maximum Instantaneous CTKE =      0.785 (m/s)^2


Grid Point Variance Summary:

   Y-coord -892.80 -883.50 -874.20 -864.90 -855.60 -846.30 -837.00 -827.70 -818.40 -809.10 -799.80 -790.50 -781.20 -771.90 -762.60 -753.30 -744.00 -734.70 -725.40 -716.10 -706.80 -697.50 -688.20 -678.90 -669.60 -660.30 -651.00 -641.70 -632.40 -623.10 -613.80 -604.50 -595.20 -585.90 -576.60 -567.30 -558.00 -548.70 -539.40 -530.10 -520.80 -511.50 -502.20 -492.90 -483.60 -474.30 -465.00 -455.70 -446.40 -437.10 -427.80 -418.50 -409.20 -399.90 -390.60 -381.30 -372.00 -362.70 -353.40 -344.10 -334.80 -325.50 -316.20 -306.90 -297.60 -288.30 -279.00 -269.70 -260.40 -251.10 -241.80 -232.50 -223.20 -213.90 -204.60 -195.30 -186.00 -176.70 -167.40 -158.10 -148.80 -139.50 -130.20 -120.90 -111.60 -102.30  -93.00  -83.70  -74.40  -65.10  -55.80  -46.50  -37.20  -27.90  -18.60   -9.30    0.00    9.30   18.60   27.90   37.20   46.50   55.80   65.10   74.40   83.70   93.00  102.30  111.60  120.90  130.20  139.50  148.80  158.10  167.40  176.70  186.00  195.30  204.60  213.90  223.20  232.50  241.80  251.10  260.40  269.70  279.00  288.30  297.60  306.90  316.20  325.50  334.80  344.10  353.40  362.70  372.00  381.30  390.60  399.90  409.20  418.50  427.80  437.10  446.40  455.70  465.00  474.30  483.60  492.90  502.20  511.50  520.80  530.10  539.40  548.70  558.00  567.30  576.60  585.90  595.20  604.50  613.80  623.10  632.40  641.70  651.00  660.30  669.60  678.90  688.20  697.50  706.80  716.10  725.40  734.70  744.00  753.30  762.60  771.90  781.20  790.50  799.80  809.10  818.40  827.70  837.00  846.30  855.60  864.90  874.20  883.50  892.80

   Height   Standard deviation at grid points for the u component:
   354.40    0.508   0.483   0.493   0.521   0.553   0.543   0.550   0.525   0.528   0.566   0.538   0.566   0.550   0.547   0.513   0.501   0.536   0.527   0.530   0.509   0.513   0.508   0.489   0.478   0.474   0.477   0.475   0.463   0.479   0.476   0.445   0.460   0.497   0.489   0.493   0.490   0.518   0.493   0.519   0.538   0.510   0.490   0.521   0.521   0.517   0.529   0.474   0.499   0.562   0.511   0.508   0.535   0.532   0.557   0.523   0.535   0.527   0.521   0.524   0.510   0.512   0.533   0.553   0.553   0.582   0.568   0.608   0.596   0.601   0.599   0.613   0.628   0.591   0.599   0.593   0.581   0.572   0.577   0.579   0.581   0.570   0.542   0.488   0.451   0.492   0.521   0.540   0.531   0.561   0.554   0.533   0.551   0.547   0.598   0.658   0.614   0.616   0.612   0.590   0.572   0.576   0.555   0.542   0.565   0.541   0.527   0.528   0.538   0.515   0.541   0.523   0.480   0.429   0.426   0.448   0.444   0.468   0.435   0.453   0.466   0.449   0.421   0.430   0.442   0.456   0.451   0.446   0.453   0.460   0.477   0.445   0.413   0.426   0.413   0.446   0.452   0.441   0.443   0.404   0.428   0.454   0.456   0.453   0.454   0.459   0.473   0.478   0.486   0.452   0.410   0.423   0.434   0.385   0.416   0.452   0.470   0.447   0.442   0.441   0.483   0.537   0.525   0.542   0.528   0.516   0.486   0.471   0.409   0.408   0.424   0.460   0.454   0.452   0.475   0.460   0.469   0.457   0.424   0.415   0.451   0.453   0.495   0.518   0.552   0.492   0.476   0.448   0.433   0.439   0.408   0.406   0.429   0.418
   345.10    0.498   0.494   0.513   0.525   0.539   0.560   0.565   0.554   0.547   0.557   0.568   0.564   0.575   0.520   0.507   0.533   0.552   0.556   0.563   0.558   0.556   0.548   0.510   0.505   0.497   0.478   0.479   0.460   0.453   0.444   0.424   0.455   0.486   0.459   0.483   0.483   0.520   0.500   0.519   0.510   0.505   0.479   0.524   0.508   0.493   0.491   0.495   0.522   0.554   0.528   0.529   0.540   0.583   0.543   0.566   0.521   0.496   0.501   0.525   0.521   0.529   0.496   0.522   0.610   0.589   0.561   0.598   0.564   0.603   0.636   0.623   0.600   0.609   0.579   0.551   0.513   0.510   0.545   0.543   0.533   0.508   0.522   0.494   0.490   0.486   0.488   0.517   0.543   0.579   0.531   0.509   0.547   0.550   0.599   0.639   0.641   0.593   0.584   0.588   0.589   0.567   0.548   0.571   0.542   0.575   0.556   0.548   0.551   0.534   0.545   0.521   0.529   0.449   0.452   0.453   0.440   0.435   0.429   0.419   0.437   0.427   0.426   0.417   0.453   0.459   0.477   0.467   0.473   0.466   0.460   0.456   0.450   0.465   0.480   0.498   0.444   0.466   0.453   0.407   0.427   0.437   0.458   0.434   0.428   0.469   0.470   0.479   0.454   0.428   0.419   0.430   0.438   0.406   0.404   0.452   0.452   0.461   0.458   0.472   0.475   0.522   0.551   0.534   0.521   0.496   0.483   0.437   0.423   0.409   0.413   0.420   0.435   0.457   0.467   0.467   0.471   0.470   0.470   0.465   0.477   0.494   0.487   0.488   0.470   0.487   0.466   0.445   0.446   0.463   0.429   0.437   0.443   0.439
   335.80    0.497   0.525   0.529   0.534   0.538   0.566   0.578   0.583   0.570   0.545   0.560   0.559   0.542   0.574   0.544   0.553   0.579   0.597   0.608   0.576   0.560   0.595   0.552   0.517   0.495   0.506   0.481   0.441   0.480   0.469   0.471   0.475   0.479   0.459   0.476   0.476   0.491   0.496   0.494   0.552   0.490   0.490   0.498   0.517   0.504   0.497   0.517   0.527   0.533   0.522   0.541   0.562   0.535   0.578   0.583   0.522   0.509   0.520   0.538   0.553   0.521   0.517   0.543   0.597   0.614   0.586   0.585   0.563   0.595   0.574   0.590   0.603   0.589   0.560   0.531   0.504   0.489   0.478   0.524   0.533   0.532   0.534   0.509   0.498   0.503   0.525   0.544   0.546   0.527   0.572   0.529   0.537   0.553   0.579   0.598   0.590   0.609   0.582   0.564   0.598   0.629   0.572   0.535   0.580   0.586   0.531   0.563   0.530   0.516   0.522   0.509   0.492   0.477   0.459   0.423   0.415   0.426   0.444   0.417   0.420   0.389   0.429   0.440   0.469   0.438   0.485   0.459   0.475   0.472   0.481   0.485   0.487   0.504   0.492   0.498   0.443   0.440   0.465   0.422   0.407   0.418   0.445   0.412   0.421   0.427   0.431   0.414   0.424   0.441   0.432   0.440   0.452   0.417   0.433   0.446   0.470   0.459   0.472   0.488   0.509   0.528   0.540   0.557   0.531   0.522   0.482   0.456   0.446   0.435   0.442   0.425   0.443   0.431   0.460   0.464   0.461   0.457   0.459   0.461   0.430   0.463   0.492   0.447   0.467   0.449   0.441   0.449   0.451   0.444   0.432   0.476   0.447   0.434
   326.50    0.476   0.513   0.514   0.550   0.562   0.552   0.604   0.586   0.589   0.559   0.570   0.532   0.540   0.550   0.565   0.564   0.570   0.581   0.594   0.589   0.561   0.558   0.567   0.503   0.534   0.501   0.511   0.496   0.477   0.466   0.479   0.481   0.501   0.453   0.477   0.459   0.462   0.479   0.492   0.516   0.506   0.499   0.507   0.534   0.500   0.486   0.509   0.529   0.537   0.523   0.540   0.566   0.538   0.566   0.550   0.510   0.508   0.511   0.508   0.509   0.518   0.481   0.519   0.544   0.612   0.623   0.615   0.584   0.581   0.600   0.607   0.562   0.557   0.559   0.537   0.504   0.487   0.473   0.529   0.495   0.522   0.516   0.497   0.491   0.507   0.509   0.506   0.504   0.551   0.540   0.549   0.569   0.566   0.561   0.601   0.618   0.627   0.639   0.609   0.616   0.607   0.564   0.574   0.621   0.599   0.542   0.551   0.527   0.502   0.490   0.441   0.477   0.481   0.440   0.401   0.408   0.412   0.439   0.424   0.406   0.405   0.416   0.421   0.414   0.396   0.463   0.477   0.452   0.489   0.504   0.513   0.475   0.504   0.504   0.486   0.439   0.447   0.431   0.403   0.422   0.420   0.431   0.441   0.429   0.426   0.403   0.397   0.416   0.465   0.441   0.430   0.427   0.421   0.430   0.470   0.481   0.513   0.510   0.517   0.525   0.526   0.544   0.563   0.536   0.498   0.479   0.444   0.447   0.453   0.438   0.442   0.449   0.454   0.430   0.435   0.430   0.417   0.448   0.440   0.470   0.473   0.454   0.431   0.447   0.425   0.450   0.456   0.441   0.443   0.449   0.454   0.451   0.436
   317.20    0.477   0.501   0.532   0.562   0.576   0.566   0.593   0.594   0.560   0.537   0.532   0.535   0.536   0.581   0.563   0.559   0.539   0.536   0.531   0.526   0.579   0.552   0.525   0.512   0.497   0.534   0.534   0.501   0.489   0.506   0.485   0.445   0.463   0.467   0.448   0.451   0.468   0.490   0.499   0.485   0.503   0.539   0.521   0.509   0.493   0.480   0.507   0.514   0.529   0.533   0.532   0.538   0.555   0.543   0.536   0.530   0.493   0.511   0.522   0.468   0.493   0.484   0.485   0.536   0.574   0.609   0.587   0.572   0.599   0.607   0.609   0.586   0.539   0.530   0.510   0.484   0.481   0.518   0.520   0.502   0.498   0.492   0.477   0.478   0.474   0.472   0.437   0.483   0.518   0.516   0.496   0.512   0.542   0.583   0.581   0.616   0.612   0.643   0.633   0.625   0.590   0.570   0.605   0.611   0.602   0.531   0.518   0.488   0.503   0.496   0.478   0.469   0.459   0.446   0.429   0.420   0.397   0.416   0.404   0.394   0.414   0.401   0.418   0.395   0.422   0.436   0.459   0.468   0.482   0.484   0.478   0.492   0.460   0.467   0.482   0.478   0.446   0.406   0.413   0.408   0.443   0.452   0.425   0.419   0.413   0.438   0.420   0.436   0.469   0.488   0.447   0.448   0.413   0.442   0.461   0.472   0.479   0.500   0.539   0.541   0.525   0.531   0.543   0.529   0.496   0.477   0.434   0.416   0.439   0.452   0.471   0.473   0.473   0.436   0.408   0.405   0.417   0.434   0.409   0.458   0.467   0.460   0.426   0.414   0.420   0.426   0.449   0.486   0.449   0.456   0.443   0.472   0.487
   307.90    0.515   0.499   0.534   0.550   0.564   0.550   0.551   0.559   0.568   0.551   0.571   0.588   0.561   0.599   0.561   0.548   0.540   0.530   0.510   0.520   0.553   0.523   0.492   0.491   0.534   0.537   0.522   0.503   0.498   0.498   0.478   0.489   0.475   0.470   0.456   0.483   0.476   0.491   0.495   0.499   0.514   0.541   0.512   0.512   0.507   0.498   0.518   0.489   0.514   0.487   0.499   0.518   0.549   0.546   0.516   0.504   0.453   0.494   0.514   0.469   0.472   0.470   0.490   0.531   0.579   0.566   0.542   0.572   0.578   0.564   0.595   0.602   0.564   0.544   0.518   0.464   0.456   0.502   0.538   0.536   0.507   0.489   0.476   0.485   0.435   0.450   0.425   0.449   0.462   0.507   0.496   0.497   0.513   0.556   0.566   0.588   0.587   0.649   0.663   0.626   0.612   0.600   0.602   0.590   0.611   0.560   0.525   0.513   0.519   0.492   0.480   0.440   0.448   0.440   0.449   0.436   0.415   0.425   0.412   0.424   0.412   0.410   0.402   0.388   0.420   0.430   0.439   0.470   0.491   0.486   0.474   0.485   0.439   0.450   0.462   0.465   0.453   0.456   0.428   0.431   0.400   0.413   0.439   0.436   0.430   0.410   0.401   0.423   0.450   0.451   0.424   0.429   0.427   0.451   0.472   0.462   0.471   0.488   0.495   0.507   0.519   0.545   0.570   0.550   0.514   0.453   0.437   0.437   0.445   0.458   0.474   0.455   0.443   0.429   0.401   0.428   0.416   0.426   0.410   0.432   0.441   0.450   0.465   0.445   0.421   0.425   0.418   0.416   0.434   0.434   0.426   0.470   0.476
   298.60    0.491   0.518   0.479   0.515   0.528   0.495   0.541   0.554   0.591   0.585   0.544   0.578   0.578   0.575   0.582   0.555   0.566   0.570   0.543   0.544   0.552   0.521   0.501   0.490   0.535   0.527   0.497   0.509   0.485   0.451   0.453   0.492   0.491   0.470   0.456   0.487   0.487   0.473   0.478   0.502   0.502   0.484   0.494   0.499   0.445   0.450   0.461   0.461   0.480   0.457   0.468   0.490   0.513   0.496   0.525   0.508   0.485   0.487   0.491   0.506   0.463   0.459   0.431   0.492   0.511   0.545   0.528   0.569   0.560   0.575   0.578   0.557   0.551   0.535   0.475   0.475   0.467   0.483   0.526   0.543   0.546   0.521   0.495   0.458   0.426   0.406   0.413   0.411   0.439   0.468   0.532   0.504   0.514   0.570   0.569   0.580   0.605   0.630   0.662   0.622   0.611   0.583   0.591   0.579   0.550   0.561   0.544   0.478   0.477   0.484   0.497   0.495   0.457   0.485   0.463   0.453   0.455   0.425   0.427   0.423   0.414   0.419   0.412   0.432   0.425   0.432   0.449   0.457   0.491   0.518   0.487   0.480   0.440   0.432   0.448   0.520   0.510   0.456   0.462   0.417   0.422   0.431   0.424   0.444   0.427   0.430   0.412   0.448   0.453   0.457   0.440   0.417   0.430   0.456   0.451   0.469   0.459   0.464   0.485   0.511   0.497   0.510   0.547   0.530   0.488   0.474   0.470   0.426   0.442   0.426   0.451   0.478   0.458   0.431   0.428   0.451   0.423   0.417   0.424   0.420   0.439   0.472   0.475   0.464   0.417   0.410   0.422   0.400   0.396   0.419   0.425   0.477   0.483
   289.30    0.478   0.477   0.502   0.491   0.501   0.485   0.522   0.534   0.565   0.541   0.547   0.520   0.542   0.563   0.546   0.567   0.577   0.571   0.575   0.544   0.498   0.538   0.527   0.519   0.536   0.544   0.518   0.488   0.456   0.454   0.425   0.480   0.487   0.488   0.459   0.464   0.472   0.463   0.466   0.471   0.494   0.508   0.494   0.450   0.437   0.461   0.467   0.435   0.438   0.447   0.442   0.496   0.479   0.455   0.484   0.511   0.501   0.498   0.472   0.516   0.491   0.475   0.470   0.502   0.533   0.505   0.545   0.525   0.529   0.533   0.554   0.570   0.565   0.536   0.515   0.463   0.474   0.497   0.513   0.526   0.536   0.510   0.490   0.459   0.412   0.398   0.421   0.400   0.462   0.490   0.512   0.522   0.550   0.558   0.546   0.586   0.604   0.600   0.624   0.595   0.589   0.564   0.520   0.517   0.516   0.533   0.511   0.482   0.477   0.482   0.479   0.479   0.484   0.468   0.412   0.418   0.451   0.440   0.416   0.412   0.410   0.451   0.450   0.420   0.434   0.453   0.472   0.464   0.466   0.473   0.475   0.484   0.493   0.500   0.503   0.513   0.477   0.460   0.449   0.445   0.458   0.485   0.443   0.428   0.437   0.431   0.416   0.439   0.446   0.442   0.426   0.419   0.418   0.438   0.459   0.450   0.490   0.476   0.490   0.513   0.528   0.528   0.517   0.481   0.462   0.444   0.457   0.457   0.463   0.440   0.477   0.485   0.485   0.474   0.497   0.454   0.404   0.432   0.424   0.427   0.445   0.480   0.457   0.448   0.425   0.402   0.418   0.388   0.407   0.424   0.425   0.440   0.469
   280.00    0.487   0.509   0.504   0.488   0.451   0.475   0.510   0.509   0.534   0.538   0.556   0.552   0.551   0.548   0.518   0.542   0.529   0.528   0.546   0.530   0.550   0.561   0.547   0.538   0.545   0.524   0.515   0.485   0.453   0.430   0.426   0.441   0.478   0.421   0.440   0.467   0.439   0.464   0.428   0.453   0.467   0.479   0.470   0.464   0.475   0.430   0.441   0.430   0.423   0.436   0.481   0.488   0.494   0.472   0.481   0.482   0.506   0.474   0.485   0.487   0.493   0.503   0.496   0.499   0.492   0.479   0.494   0.489   0.494   0.528   0.543   0.546   0.514   0.498   0.498   0.456   0.459   0.497   0.521   0.492   0.476   0.450   0.445   0.410   0.409   0.405   0.417   0.415   0.461   0.484   0.502   0.481   0.514   0.562   0.592   0.613   0.617   0.595   0.603   0.567   0.566   0.577   0.538   0.494   0.528   0.515   0.482   0.487   0.499   0.497   0.495   0.474   0.479   0.434   0.422   0.391   0.432   0.436   0.417   0.425   0.437   0.426   0.426   0.421   0.457   0.476   0.458   0.459   0.478   0.469   0.492   0.518   0.517   0.484   0.506   0.530   0.482   0.468   0.434   0.462   0.476   0.492   0.473   0.418   0.420   0.417   0.416   0.435   0.451   0.440   0.436   0.434   0.444   0.433   0.419   0.447   0.449   0.503   0.486   0.524   0.528   0.523   0.501   0.460   0.471   0.467   0.455   0.467   0.449   0.471   0.470   0.473   0.509   0.485   0.469   0.466   0.424   0.441   0.448   0.433   0.461   0.438   0.448   0.465   0.485   0.436   0.406   0.425   0.434   0.423   0.420   0.453   0.452
   270.70    0.444   0.474   0.505   0.489   0.492   0.520   0.498   0.515   0.552   0.545   0.564   0.525   0.574   0.521   0.498   0.524   0.549   0.531   0.530   0.551   0.514   0.522   0.529   0.563   0.544   0.560   0.532   0.517   0.445   0.455   0.438   0.450   0.426   0.415   0.429   0.448   0.459   0.473   0.438   0.449   0.438   0.472   0.457   0.457   0.482   0.437   0.433   0.425   0.431   0.458   0.503   0.481   0.477   0.439   0.471   0.499   0.500   0.476   0.463   0.467   0.450   0.465   0.470   0.487   0.483   0.445   0.437   0.480   0.489   0.506   0.507   0.492   0.505   0.505   0.517   0.499   0.488   0.516   0.495   0.500   0.510   0.471   0.451   0.428   0.410   0.414   0.417   0.437   0.473   0.491   0.493   0.514   0.517   0.561   0.605   0.606   0.594   0.560   0.588   0.596   0.556   0.543   0.533   0.486   0.490   0.500   0.518   0.504   0.503   0.460   0.449   0.493   0.469   0.451   0.439   0.406   0.424   0.423   0.429   0.417   0.420   0.415   0.422   0.440   0.461   0.492   0.467   0.481   0.460   0.446   0.488   0.510   0.495   0.509   0.520   0.508   0.530   0.501   0.468   0.483   0.479   0.469   0.415   0.414   0.422   0.432   0.448   0.464   0.414   0.446   0.420   0.397   0.408   0.414   0.429   0.418   0.454   0.504   0.504   0.521   0.521   0.480   0.473   0.473   0.467   0.460   0.481   0.483   0.475   0.467   0.465   0.458   0.494   0.485   0.494   0.467   0.453   0.453   0.459   0.456   0.491   0.496   0.466   0.465   0.484   0.458   0.446   0.462   0.483   0.449   0.443   0.438   0.444
   261.40    0.498   0.477   0.487   0.484   0.482   0.512   0.508   0.493   0.505   0.529   0.525   0.535   0.550   0.509   0.526   0.514   0.513   0.538   0.550   0.521   0.488   0.500   0.507   0.532   0.545   0.529   0.497   0.490   0.479   0.460   0.458   0.433   0.400   0.417   0.408   0.454   0.456   0.444   0.434   0.432   0.461   0.428   0.444   0.482   0.491   0.437   0.463   0.425   0.428   0.438   0.476   0.463   0.440   0.443   0.434   0.489   0.517   0.502   0.478   0.445   0.413   0.453   0.463   0.468   0.459   0.428   0.468   0.482   0.465   0.476   0.469   0.459   0.452   0.468   0.511   0.544   0.506   0.499   0.512   0.486   0.529   0.445   0.418   0.416   0.418   0.437   0.430   0.468   0.497   0.533   0.492   0.519   0.516   0.550   0.608   0.635   0.594   0.596   0.598   0.573   0.565   0.532   0.530   0.479   0.477   0.481   0.515   0.470   0.479   0.472   0.497   0.491   0.513   0.480   0.465   0.422   0.428   0.401   0.390   0.397   0.401   0.406   0.434   0.439   0.430   0.459   0.438   0.453   0.494   0.481   0.482   0.479   0.451   0.468   0.507   0.519   0.508   0.527   0.486   0.471   0.493   0.485   0.443   0.414   0.414   0.414   0.419   0.439   0.417   0.414   0.398   0.387   0.407   0.417   0.417   0.417   0.471   0.499   0.492   0.471   0.510   0.481   0.468   0.474   0.451   0.426   0.468   0.497   0.489   0.481   0.477   0.486   0.440   0.448   0.462   0.474   0.454   0.451   0.450   0.472   0.496   0.523   0.464   0.482   0.499   0.456   0.466   0.458   0.481   0.478   0.437   0.433   0.441
   252.10    0.472   0.459   0.473   0.469   0.485   0.484   0.490   0.471   0.505   0.501   0.491   0.485   0.474   0.490   0.510   0.518   0.509   0.497   0.516   0.527   0.527   0.485   0.513   0.525   0.510   0.496   0.481   0.469   0.468   0.439   0.445   0.425   0.405   0.439   0.417   0.440   0.433   0.419   0.416   0.451   0.436   0.437   0.452   0.479   0.454   0.445   0.435   0.396   0.390   0.403   0.419   0.465   0.468   0.476   0.475   0.484   0.498   0.524   0.461   0.425   0.452   0.446   0.431   0.469   0.451   0.463   0.470   0.476   0.458   0.461   0.450   0.448   0.444   0.465   0.536   0.522   0.528   0.541   0.519   0.511   0.514   0.472   0.438   0.432   0.421   0.431   0.448   0.466   0.495   0.522   0.498   0.516   0.529   0.538   0.584   0.613   0.616   0.613   0.581   0.580   0.534   0.511   0.521   0.547   0.471   0.487   0.491   0.476   0.469   0.485   0.487   0.467   0.505   0.462   0.485   0.462   0.429   0.404   0.407   0.409   0.408   0.391   0.426   0.410   0.446   0.455   0.469   0.437   0.452   0.451   0.461   0.456   0.479   0.493   0.516   0.511   0.506   0.497   0.463   0.472   0.465   0.456   0.455   0.424   0.434   0.413   0.416   0.414   0.397   0.388   0.395   0.381   0.376   0.417   0.424   0.428   0.446   0.475   0.488   0.487   0.501   0.461   0.490   0.468   0.466   0.458   0.517   0.513   0.493   0.473   0.514   0.501   0.467   0.425   0.408   0.451   0.460   0.464   0.458   0.494   0.504   0.513   0.497   0.504   0.471   0.477   0.466   0.461   0.471   0.432   0.431   0.439   0.425
   242.80    0.473   0.474   0.454   0.459   0.492   0.488   0.471   0.481   0.493   0.509   0.485   0.449   0.467   0.464   0.471   0.494   0.476   0.466   0.467   0.494   0.512   0.498   0.514   0.509   0.510   0.485   0.486   0.476   0.460   0.437   0.464   0.458   0.422   0.431   0.414   0.446   0.467   0.429   0.441   0.454   0.454   0.445   0.483   0.469   0.451   0.441   0.396   0.393   0.390   0.386   0.433   0.475   0.462   0.465   0.479   0.509   0.499   0.538   0.496   0.486   0.448   0.450   0.428   0.444   0.456   0.482   0.455   0.479   0.445   0.458   0.451   0.441   0.441   0.487   0.537   0.537   0.533   0.563   0.531   0.533   0.485   0.452   0.452   0.450   0.429   0.424   0.431   0.454   0.488   0.501   0.479   0.495   0.516   0.528   0.562   0.606   0.593   0.562   0.567   0.522   0.503   0.510   0.519   0.524   0.520   0.460   0.490   0.475   0.483   0.500   0.508   0.470   0.483   0.457   0.500   0.455   0.422   0.418   0.416   0.436   0.449   0.478   0.404   0.425   0.414   0.426   0.458   0.450   0.429   0.432   0.455   0.469   0.489   0.474   0.498   0.528   0.507   0.499   0.477   0.463   0.465   0.458   0.452   0.405   0.416   0.382   0.397   0.390   0.412   0.405   0.383   0.373   0.410   0.419   0.406   0.405   0.414   0.438   0.452   0.493   0.479   0.473   0.492   0.474   0.438   0.464   0.504   0.526   0.520   0.537   0.518   0.513   0.445   0.440   0.444   0.444   0.442   0.436   0.462   0.490   0.514   0.493   0.469   0.477   0.476   0.457   0.454   0.449   0.440   0.416   0.424   0.447   0.428
   233.50    0.491   0.474   0.463   0.488   0.465   0.518   0.476   0.509   0.525   0.508   0.493   0.465   0.470   0.464   0.487   0.471   0.479   0.460   0.452   0.471   0.517   0.530   0.510   0.496   0.488   0.490   0.491   0.483   0.487   0.453   0.473   0.462   0.418   0.399   0.429   0.445   0.493   0.450   0.439   0.431   0.451   0.460   0.488   0.436   0.390   0.400   0.396   0.400   0.414   0.416   0.456   0.466   0.452   0.497   0.493   0.504   0.500   0.510   0.556   0.532   0.489   0.448   0.447   0.415   0.429   0.461   0.466   0.488   0.472   0.455   0.457   0.447   0.482   0.500   0.525   0.534   0.537   0.525   0.537   0.542   0.478   0.484   0.446   0.449   0.450   0.417   0.427   0.449   0.479   0.474   0.517   0.504   0.501   0.509   0.558   0.575   0.591   0.574   0.536   0.511   0.501   0.508   0.545   0.573   0.522   0.478   0.510   0.529   0.522   0.521   0.531   0.520   0.530   0.505   0.497   0.502   0.494   0.442   0.400   0.458   0.470   0.483   0.449   0.451   0.421   0.423   0.434   0.432   0.457   0.453   0.462   0.495   0.487   0.489   0.504   0.514   0.476   0.461   0.458   0.475   0.482   0.489   0.464   0.421   0.400   0.403   0.388   0.415   0.371   0.398   0.412   0.396   0.406   0.418   0.408   0.429   0.443   0.466   0.428   0.442   0.440   0.476   0.482   0.468   0.436   0.483   0.506   0.494   0.499   0.528   0.518   0.487   0.431   0.440   0.430   0.431   0.423   0.443   0.480   0.472   0.486   0.492   0.473   0.450   0.458   0.459   0.447   0.439   0.483   0.461   0.450   0.468   0.485
   224.20    0.517   0.524   0.527   0.495   0.485   0.496   0.482   0.468   0.513   0.502   0.495   0.470   0.430   0.448   0.453   0.446   0.483   0.463   0.457   0.516   0.510   0.547   0.535   0.521   0.508   0.516   0.522   0.504   0.537   0.486   0.459   0.466   0.430   0.430   0.417   0.455   0.488   0.461   0.439   0.430   0.454   0.456   0.475   0.422   0.416   0.410   0.428   0.421   0.387   0.423   0.440   0.453   0.480   0.475   0.514   0.520   0.527   0.539   0.540   0.540   0.512   0.477   0.431   0.425   0.421   0.463   0.441   0.456   0.455   0.487   0.453   0.439   0.446   0.492   0.528   0.527   0.515   0.501   0.484   0.484   0.475   0.445   0.448   0.441   0.439   0.434   0.451   0.442   0.504   0.488   0.493   0.500   0.489   0.531   0.547   0.557   0.575   0.584   0.541   0.526   0.506   0.536   0.565   0.575   0.505   0.523   0.503   0.512   0.534   0.578   0.514   0.524   0.555   0.595   0.546   0.522   0.499   0.445   0.417   0.467   0.450   0.446   0.436   0.443   0.440   0.431   0.451   0.450   0.470   0.488   0.507   0.464   0.465   0.484   0.511   0.501   0.501   0.463   0.447   0.476   0.480   0.477   0.450   0.438   0.400   0.389   0.387   0.417   0.434   0.410   0.400   0.404   0.387   0.390   0.420   0.442   0.483   0.468   0.446   0.448   0.458   0.427   0.427   0.464   0.481   0.498   0.484   0.496   0.493   0.514   0.517   0.478   0.471   0.468   0.457   0.471   0.455   0.458   0.446   0.433   0.451   0.473   0.432   0.458   0.429   0.459   0.455   0.444   0.454   0.471   0.474   0.480   0.483
   214.90    0.560   0.587   0.603   0.544   0.503   0.494   0.483   0.461   0.490   0.487   0.480   0.451   0.444   0.448   0.428   0.443   0.457   0.483   0.503   0.507   0.554   0.533   0.546   0.558   0.529   0.521   0.519   0.484   0.489   0.493   0.456   0.456   0.454   0.420   0.405   0.442   0.451   0.446   0.421   0.406   0.433   0.443   0.447   0.467   0.452   0.443   0.427   0.409   0.388   0.428   0.446   0.440   0.450   0.469   0.499   0.510   0.509   0.535   0.562   0.524   0.529   0.473   0.420   0.421   0.416   0.439   0.446   0.424   0.454   0.479   0.448   0.459   0.444   0.475   0.511   0.477   0.477   0.498   0.451   0.450   0.459   0.454   0.464   0.459   0.439   0.433   0.482   0.503   0.501   0.480   0.480   0.504   0.529   0.560   0.585   0.533   0.543   0.576   0.532   0.503   0.517   0.541   0.552   0.562   0.555   0.493   0.531   0.507   0.523   0.575   0.550   0.539   0.572   0.610   0.561   0.509   0.494   0.488   0.483   0.481   0.469   0.443   0.437   0.407   0.436   0.463   0.455   0.464   0.478   0.481   0.498   0.511   0.493   0.502   0.480   0.483   0.470   0.456   0.469   0.484   0.482   0.480   0.471   0.418   0.397   0.375   0.430   0.437   0.416   0.417   0.426   0.444   0.446   0.466   0.455   0.465   0.490   0.491   0.498   0.456   0.428   0.450   0.445   0.470   0.521   0.496   0.503   0.520   0.511   0.501   0.509   0.488   0.517   0.493   0.484   0.497   0.471   0.456   0.438   0.448   0.440   0.451   0.445   0.435   0.454   0.460   0.472   0.484   0.489   0.476   0.475   0.443   0.450
   205.60    0.617   0.599   0.623   0.599   0.552   0.525   0.508   0.493   0.497   0.515   0.500   0.468   0.476   0.463   0.430   0.423   0.435   0.448   0.471   0.488   0.529   0.524   0.552   0.555   0.536   0.547   0.524   0.484   0.474   0.472   0.465   0.451   0.475   0.434   0.416   0.427   0.438   0.414   0.406   0.416   0.434   0.447   0.439   0.493   0.495   0.478   0.438   0.395   0.414   0.427   0.419   0.426   0.446   0.432   0.488   0.529   0.532   0.555   0.549   0.510   0.494   0.492   0.466   0.447   0.444   0.415   0.416   0.459   0.445   0.447   0.448   0.446   0.480   0.484   0.501   0.493   0.454   0.493   0.464   0.460   0.451   0.460   0.461   0.411   0.414   0.439   0.483   0.492   0.509   0.488   0.492   0.522   0.556   0.557   0.592   0.568   0.578   0.554   0.534   0.511   0.568   0.585   0.580   0.562   0.556   0.538   0.534   0.542   0.555   0.583   0.545   0.569   0.590   0.611   0.545   0.564   0.548   0.528   0.537   0.521   0.472   0.466   0.432   0.417   0.466   0.472   0.439   0.467   0.524   0.482   0.473   0.495   0.513   0.486   0.484   0.457   0.477   0.481   0.483   0.470   0.483   0.454   0.481   0.425   0.422   0.427   0.415   0.446   0.444   0.437   0.451   0.491   0.482   0.471   0.461   0.524   0.562   0.563   0.506   0.453   0.438   0.464   0.451   0.472   0.493   0.489   0.504   0.520   0.506   0.528   0.536   0.496   0.491   0.514   0.522   0.492   0.458   0.465   0.452   0.454   0.433   0.443   0.410   0.428   0.437   0.455   0.471   0.462   0.466   0.458   0.478   0.468   0.461
   196.30    0.605   0.604   0.594   0.571   0.558   0.562   0.574   0.538   0.534   0.520   0.482   0.464   0.466   0.474   0.419   0.435   0.426   0.461   0.453   0.462   0.526   0.526   0.558   0.530   0.521   0.528   0.528   0.518   0.478   0.488   0.470   0.438   0.452   0.430   0.415   0.425   0.419   0.433   0.414   0.412   0.403   0.451   0.468   0.512   0.474   0.459   0.457   0.438   0.431   0.464   0.445   0.450   0.460   0.446   0.494   0.525   0.519   0.551   0.522   0.491   0.494   0.489   0.452   0.401   0.445   0.442   0.439   0.481   0.458   0.445   0.425   0.430   0.451   0.487   0.513   0.521   0.487   0.471   0.490   0.499   0.466   0.439   0.438   0.448   0.416   0.429   0.452   0.492   0.510   0.491   0.543   0.555   0.582   0.561   0.566   0.572   0.543   0.550   0.558   0.563   0.556   0.557   0.587   0.571   0.568   0.539   0.558   0.576   0.600   0.613   0.593   0.601   0.582   0.571   0.582   0.577   0.529   0.541   0.524   0.529   0.497   0.452   0.430   0.446   0.444   0.452   0.480   0.489   0.481   0.505   0.506   0.486   0.477   0.474   0.502   0.467   0.463   0.505   0.475   0.459   0.481   0.475   0.467   0.452   0.427   0.403   0.427   0.471   0.470   0.448   0.460   0.503   0.484   0.466   0.490   0.509   0.552   0.564   0.513   0.512   0.455   0.457   0.497   0.471   0.476   0.495   0.472   0.476   0.524   0.503   0.543   0.530   0.498   0.491   0.508   0.531   0.503   0.489   0.476   0.485   0.499   0.454   0.454   0.470   0.466   0.479   0.463   0.490   0.470   0.474   0.481   0.485   0.458
   187.00    0.614   0.605   0.615   0.602   0.604   0.563   0.566   0.561   0.552   0.503   0.466   0.461   0.469   0.501   0.460   0.454   0.454   0.448   0.475   0.446   0.515   0.515   0.535   0.507   0.496   0.501   0.485   0.466   0.474   0.452   0.461   0.449   0.460   0.450   0.453   0.455   0.440   0.406   0.426   0.393   0.392   0.431   0.486   0.492   0.522   0.517   0.480   0.460   0.417   0.453   0.436   0.467   0.461   0.477   0.478   0.491   0.504   0.532   0.523   0.494   0.480   0.482   0.471   0.470   0.468   0.470   0.465   0.508   0.504   0.459   0.450   0.441   0.436   0.456   0.462   0.472   0.494   0.489   0.480   0.485   0.453   0.448   0.470   0.438   0.445   0.444   0.453   0.486   0.493   0.510   0.540   0.528   0.561   0.548   0.537   0.534   0.546   0.521   0.549   0.520   0.515   0.532   0.541   0.555   0.571   0.551   0.569   0.585   0.636   0.620   0.636   0.626   0.597   0.584   0.586   0.602   0.535   0.523   0.545   0.523   0.495   0.460   0.462   0.432   0.418   0.443   0.442   0.484   0.497   0.499   0.507   0.510   0.533   0.500   0.490   0.489   0.495   0.495   0.492   0.492   0.506   0.481   0.462   0.440   0.423   0.400   0.460   0.477   0.462   0.459   0.444   0.484   0.492   0.480   0.487   0.513   0.552   0.555   0.536   0.499   0.482   0.477   0.470   0.488   0.473   0.478   0.495   0.504   0.513   0.531   0.545   0.524   0.495   0.510   0.501   0.526   0.514   0.513   0.523   0.520   0.471   0.455   0.463   0.508   0.503   0.483   0.456   0.489   0.474   0.468   0.464   0.475   0.487
   177.70    0.594   0.653   0.607   0.629   0.630   0.567   0.554   0.551   0.536   0.520   0.494   0.484   0.483   0.529   0.467   0.480   0.433   0.458   0.525   0.510   0.497   0.513   0.513   0.484   0.502   0.516   0.478   0.479   0.449   0.457   0.490   0.485   0.457   0.443   0.427   0.454   0.434   0.410   0.410   0.431   0.408   0.426   0.469   0.483   0.519   0.535   0.511   0.456   0.426   0.432   0.430   0.463   0.492   0.485   0.463   0.459   0.479   0.476   0.462   0.473   0.467   0.466   0.473   0.469   0.475   0.456   0.487   0.511   0.476   0.514   0.463   0.460   0.453   0.476   0.450   0.473   0.504   0.507   0.507   0.506   0.456   0.458   0.497   0.469   0.460   0.461   0.469   0.491   0.490   0.511   0.545   0.517   0.486   0.501   0.503   0.498   0.506   0.516   0.509   0.550   0.592   0.554   0.524   0.540   0.514   0.557   0.537   0.592   0.596   0.655   0.639   0.587   0.567   0.582   0.582   0.581   0.572   0.529   0.522   0.485   0.472   0.429   0.416   0.445   0.420   0.472   0.483   0.495   0.513   0.501   0.502   0.513   0.532   0.524   0.519   0.525   0.519   0.476   0.456   0.485   0.479   0.475   0.458   0.432   0.446   0.417   0.432   0.451   0.486   0.461   0.463   0.502   0.542   0.504   0.482   0.495   0.540   0.541   0.543   0.500   0.489   0.456   0.472   0.482   0.460   0.452   0.484   0.457   0.506   0.546   0.514   0.527   0.509   0.490   0.512   0.527   0.557   0.534   0.525   0.497   0.502   0.487   0.507   0.524   0.506   0.490   0.482   0.478   0.499   0.486   0.500   0.464   0.488
   168.40    0.620   0.638   0.621   0.601   0.572   0.568   0.553   0.544   0.527   0.532   0.506   0.494   0.508   0.497   0.490   0.457   0.461   0.467   0.499   0.512   0.531   0.512   0.492   0.467   0.456   0.484   0.466   0.470   0.474   0.478   0.489   0.488   0.468   0.453   0.421   0.414   0.426   0.394   0.433   0.419   0.407   0.406   0.417   0.460   0.490   0.528   0.506   0.480   0.454   0.453   0.474   0.479   0.472   0.468   0.456   0.475   0.467   0.515   0.481   0.489   0.457   0.467   0.497   0.482   0.508   0.463   0.468   0.481   0.492   0.508   0.483   0.478   0.479   0.467   0.481   0.495   0.502   0.515   0.500   0.508   0.490   0.493   0.482   0.483   0.455   0.482   0.478   0.452   0.467   0.469   0.506   0.544   0.507   0.513   0.500   0.469   0.499   0.508   0.514   0.552   0.545   0.531   0.552   0.546   0.565   0.577   0.586   0.597   0.579   0.605   0.630   0.582   0.589   0.576   0.587   0.607   0.592   0.536   0.517   0.504   0.457   0.422   0.411   0.426   0.442   0.470   0.469   0.469   0.487   0.517   0.528   0.546   0.548   0.538   0.542   0.554   0.529   0.505   0.491   0.510   0.460   0.453   0.451   0.463   0.440   0.433   0.434   0.462   0.468   0.472   0.465   0.480   0.476   0.498   0.464   0.494   0.505   0.526   0.538   0.491   0.466   0.448   0.475   0.494   0.474   0.479   0.470   0.463   0.483   0.512   0.501   0.499   0.486   0.484   0.489   0.529   0.557   0.530   0.522   0.479   0.514   0.490   0.492   0.493   0.470   0.499   0.488   0.538   0.523   0.520   0.506   0.469   0.483
   159.10    0.569   0.582   0.547   0.551   0.573   0.555   0.537   0.537   0.521   0.499   0.504   0.515   0.499   0.521   0.513   0.506   0.490   0.474   0.487   0.502   0.474   0.466   0.464   0.439   0.467   0.467   0.479   0.458   0.498   0.501   0.482   0.507   0.462   0.428   0.453   0.421   0.404   0.405   0.419   0.372   0.385   0.403   0.409   0.425   0.473   0.493   0.461   0.491   0.497   0.483   0.485   0.481   0.511   0.500   0.431   0.484   0.487   0.543   0.551   0.500   0.480   0.490   0.472   0.505   0.494   0.505   0.467   0.469   0.489   0.475   0.511   0.484   0.495   0.484   0.514   0.504   0.513   0.509   0.508   0.498   0.496   0.445   0.456   0.442   0.431   0.469   0.497   0.459   0.455   0.462   0.498   0.496   0.541   0.516   0.485   0.456   0.503   0.500   0.534   0.531   0.517   0.553   0.547   0.559   0.586   0.606   0.635   0.605   0.627   0.599   0.578   0.573   0.577   0.576   0.556   0.565   0.563   0.546   0.533   0.475   0.480   0.473   0.429   0.408   0.447   0.482   0.478   0.492   0.482   0.514   0.535   0.507   0.543   0.509   0.530   0.510   0.516   0.512   0.482   0.479   0.480   0.483   0.461   0.452   0.446   0.420   0.455   0.469   0.465   0.424   0.455   0.443   0.444   0.468   0.447   0.461   0.499   0.504   0.481   0.492   0.479   0.475   0.505   0.502   0.481   0.480   0.502   0.465   0.462   0.488   0.510   0.506   0.500   0.467   0.485   0.511   0.522   0.517   0.513   0.491   0.488   0.488   0.478   0.510   0.489   0.507   0.526   0.531   0.513   0.532   0.491   0.488   0.488
   149.80    0.552   0.555   0.541   0.545   0.583   0.564   0.532   0.548   0.557   0.502   0.519   0.502   0.492   0.529   0.498   0.500   0.484   0.491   0.457   0.497   0.491   0.439   0.443   0.445   0.439   0.441   0.442   0.463   0.490   0.514   0.480   0.500   0.463   0.435   0.459   0.433   0.399   0.405   0.395   0.387   0.379   0.366   0.399   0.407   0.444   0.441   0.432   0.487   0.496   0.475   0.497   0.516   0.498   0.469   0.467   0.484   0.509   0.531   0.516   0.483   0.503   0.484   0.474   0.485   0.479   0.489   0.494   0.489   0.468   0.518   0.496   0.510   0.529   0.506   0.496   0.509   0.496   0.484   0.484   0.488   0.476   0.455   0.442   0.459   0.472   0.475   0.430   0.456   0.470   0.498   0.483   0.524   0.523   0.498   0.488   0.467   0.526   0.554   0.528   0.557   0.579   0.562   0.550   0.528   0.558   0.617   0.588   0.602   0.557   0.564   0.565   0.561   0.552   0.576   0.570   0.553   0.568   0.516   0.510   0.465   0.496   0.454   0.421   0.414   0.448   0.466   0.470   0.460   0.481   0.473   0.498   0.509   0.493   0.484   0.462   0.490   0.462   0.468   0.498   0.477   0.479   0.503   0.520   0.496   0.489   0.457   0.478   0.499   0.452   0.464   0.466   0.424   0.446   0.461   0.421   0.466   0.489   0.500   0.464   0.443   0.459   0.471   0.495   0.482   0.462   0.463   0.468   0.480   0.488   0.481   0.486   0.503   0.535   0.484   0.489   0.520   0.522   0.535   0.511   0.475   0.482   0.486   0.504   0.495   0.502   0.510   0.520   0.516   0.498   0.506   0.490   0.501   0.494
   140.50    0.563   0.532   0.525   0.511   0.556   0.560   0.519   0.542   0.536   0.481   0.495   0.504   0.514   0.546   0.505   0.522   0.508   0.507   0.483   0.459   0.458   0.454   0.451   0.417   0.427   0.442   0.446   0.456   0.472   0.516   0.476   0.474   0.462   0.461   0.418   0.416   0.402   0.419   0.408   0.382   0.357   0.362   0.368   0.431   0.440   0.449   0.468   0.486   0.474   0.499   0.491   0.509   0.518   0.480   0.485   0.456   0.480   0.541   0.494   0.497   0.501   0.497   0.506   0.489   0.500   0.512   0.553   0.521   0.532   0.543   0.525   0.518   0.529   0.525   0.491   0.507   0.485   0.476   0.441   0.483   0.466   0.475   0.441   0.468   0.490   0.490   0.444   0.431   0.475   0.474   0.517   0.487   0.485   0.510   0.525   0.499   0.541   0.576   0.524   0.563   0.565   0.544   0.530   0.552   0.581   0.602   0.578   0.582   0.554   0.533   0.533   0.572   0.551   0.582   0.545   0.525   0.519   0.494   0.464   0.446   0.462   0.416   0.411   0.420   0.434   0.441   0.433   0.428   0.447   0.415   0.473   0.476   0.449   0.470   0.467   0.455   0.430   0.445   0.472   0.465   0.471   0.470   0.472   0.495   0.456   0.424   0.467   0.473   0.467   0.437   0.486   0.466   0.453   0.438   0.441   0.458   0.476   0.506   0.471   0.468   0.452   0.481   0.440   0.450   0.421   0.407   0.429   0.449   0.463   0.449   0.515   0.516   0.502   0.486   0.490   0.514   0.515   0.512   0.507   0.494   0.476   0.445   0.472   0.448   0.475   0.528   0.510   0.523   0.517   0.503   0.467   0.466   0.483
   131.20    0.568   0.528   0.572   0.550   0.611   0.572   0.545   0.523   0.542   0.505   0.529   0.508   0.506   0.499   0.499   0.501   0.486   0.485   0.463   0.432   0.429   0.417   0.440   0.425   0.403   0.411   0.416   0.417   0.428   0.462   0.459   0.467   0.453   0.445   0.410   0.385   0.418   0.419   0.379   0.393   0.382   0.393   0.366   0.436   0.456   0.462   0.455   0.460   0.486   0.478   0.475   0.480   0.459   0.452   0.469   0.466   0.465   0.489   0.515   0.517   0.472   0.494   0.467   0.491   0.519   0.509   0.537   0.523   0.558   0.552   0.534   0.549   0.541   0.527   0.504   0.488   0.460   0.463   0.442   0.480   0.489   0.501   0.475   0.465   0.483   0.475   0.457   0.463   0.467   0.487   0.495   0.506   0.473   0.518   0.521   0.516   0.527   0.568   0.561   0.556   0.537   0.549   0.505   0.568   0.560   0.576   0.555   0.574   0.545   0.551   0.571   0.530   0.528   0.548   0.509   0.524   0.514   0.473   0.438   0.422   0.419   0.383   0.413   0.418   0.432   0.437   0.434   0.414   0.422   0.440   0.468   0.477   0.452   0.450   0.434   0.423   0.437   0.446   0.461   0.439   0.455   0.439   0.447   0.486   0.480   0.465   0.452   0.441   0.435   0.466   0.452   0.451   0.406   0.420   0.456   0.467   0.460   0.464   0.447   0.490   0.471   0.485   0.453   0.441   0.403   0.410   0.428   0.421   0.450   0.473   0.488   0.494   0.520   0.510   0.521   0.499   0.515   0.514   0.514   0.508   0.483   0.468   0.466   0.495   0.488   0.499   0.502   0.509   0.511   0.525   0.475   0.459   0.454
   121.90    0.551   0.540   0.546   0.544   0.585   0.572   0.527   0.527   0.524   0.506   0.506   0.538   0.509   0.525   0.520   0.498   0.487   0.454   0.457   0.447   0.452   0.437   0.433   0.430   0.407   0.409   0.404   0.404   0.434   0.459   0.432   0.399   0.445   0.420   0.433   0.413   0.421   0.422   0.402   0.374   0.379   0.372   0.403   0.444   0.450   0.457   0.433   0.469   0.467   0.491   0.467   0.460   0.449   0.448   0.464   0.467   0.480   0.498   0.530   0.507   0.504   0.481   0.445   0.479   0.494   0.513   0.525   0.538   0.514   0.545   0.544   0.556   0.538   0.550   0.513   0.479   0.479   0.450   0.466   0.466   0.498   0.521   0.491   0.473   0.482   0.485   0.478   0.479   0.438   0.475   0.458   0.479   0.474   0.504   0.497   0.550   0.549   0.537   0.552   0.522   0.508   0.530   0.527   0.557   0.557   0.538   0.549   0.558   0.554   0.579   0.560   0.531   0.507   0.542   0.558   0.533   0.509   0.467   0.445   0.451   0.425   0.413   0.413   0.432   0.476   0.435   0.424   0.419   0.440   0.439   0.454   0.477   0.451   0.449   0.464   0.447   0.431   0.423   0.467   0.446   0.463   0.463   0.476   0.499   0.500   0.471   0.460   0.466   0.445   0.445   0.437   0.449   0.414   0.424   0.439   0.475   0.468   0.465   0.461   0.447   0.467   0.439   0.430   0.429   0.416   0.417   0.433   0.443   0.449   0.456   0.516   0.499   0.482   0.507   0.526   0.513   0.531   0.516   0.465   0.487   0.508   0.470   0.464   0.487   0.491   0.472   0.475   0.514   0.517   0.499   0.496   0.479   0.465
   112.60    0.556   0.510   0.533   0.529   0.530   0.531   0.547   0.503   0.500   0.492   0.497   0.498   0.493   0.516   0.501   0.505   0.485   0.481   0.459   0.466   0.474   0.455   0.459   0.422   0.428   0.430   0.404   0.421   0.428   0.444   0.400   0.423   0.433   0.396   0.429   0.401   0.415   0.416   0.405   0.403   0.388   0.401   0.438   0.455   0.458   0.467   0.443   0.452   0.474   0.472   0.467   0.449   0.416   0.440   0.468   0.482   0.515   0.490   0.512   0.521   0.500   0.507   0.507   0.487   0.526   0.568   0.562   0.536   0.536   0.557   0.595   0.581   0.576   0.547   0.526   0.516   0.474   0.469   0.488   0.455   0.497   0.504   0.493   0.482   0.443   0.462   0.462   0.484   0.468   0.473   0.456   0.437   0.463   0.491   0.458   0.515   0.524   0.554   0.572   0.526   0.513   0.515   0.530   0.522   0.526   0.517   0.510   0.522   0.538   0.542   0.525   0.522   0.509   0.528   0.516   0.529   0.524   0.477   0.472   0.473   0.430   0.423   0.418   0.456   0.470   0.454   0.437   0.406   0.406   0.400   0.438   0.444   0.475   0.453   0.452   0.458   0.429   0.430   0.473   0.477   0.480   0.477   0.497   0.468   0.487   0.495   0.493   0.446   0.504   0.492   0.454   0.420   0.418   0.436   0.452   0.485   0.456   0.463   0.433   0.456   0.425   0.439   0.434   0.428   0.414   0.409   0.447   0.465   0.459   0.478   0.488   0.510   0.508   0.528   0.560   0.507   0.514   0.484   0.448   0.449   0.485   0.459   0.480   0.483   0.477   0.451   0.465   0.465   0.484   0.483   0.457   0.471   0.443
   103.30    0.566   0.540   0.526   0.510   0.530   0.554   0.537   0.509   0.509   0.495   0.481   0.515   0.524   0.531   0.497   0.500   0.498   0.471   0.472   0.486   0.495   0.492   0.468   0.467   0.451   0.423   0.428   0.414   0.415   0.434   0.414   0.409   0.412   0.422   0.422   0.412   0.393   0.420   0.426   0.466   0.408   0.433   0.445   0.479   0.472   0.491   0.480   0.437   0.443   0.444   0.446   0.420   0.430   0.451   0.483   0.452   0.485   0.509   0.535   0.519   0.510   0.484   0.532   0.536   0.547   0.561   0.564   0.526   0.550   0.578   0.601   0.577   0.548   0.542   0.493   0.486   0.467   0.460   0.453   0.422   0.489   0.525   0.487   0.461   0.437   0.453   0.470   0.454   0.454   0.440   0.446   0.423   0.426   0.472   0.463   0.547   0.545   0.562   0.579   0.568   0.534   0.542   0.527   0.524   0.537   0.529   0.522   0.508   0.543   0.521   0.527   0.494   0.501   0.493   0.531   0.524   0.544   0.497   0.449   0.453   0.446   0.451   0.449   0.447   0.451   0.445   0.437   0.437   0.428   0.385   0.424   0.441   0.454   0.455   0.476   0.471   0.436   0.439   0.478   0.457   0.518   0.471   0.493   0.474   0.469   0.462   0.497   0.501   0.500   0.468   0.458   0.423   0.414   0.456   0.459   0.468   0.447   0.443   0.440   0.450   0.423   0.425   0.462   0.432   0.424   0.433   0.425   0.448   0.472   0.475   0.454   0.471   0.499   0.517   0.538   0.518   0.517   0.463   0.470   0.492   0.481   0.479   0.515   0.515   0.512   0.474   0.446   0.457   0.460   0.478   0.466   0.459   0.448
    94.00    0.554   0.542   0.550   0.539   0.559   0.536   0.533   0.523   0.510   0.508   0.508   0.478   0.548   0.539   0.507   0.503   0.479   0.468   0.475   0.456   0.496   0.518   0.499   0.474   0.462   0.443   0.435   0.439   0.413   0.450   0.427   0.403   0.407   0.391   0.434   0.420   0.439   0.429   0.433   0.452   0.445   0.464   0.464   0.450   0.468   0.470   0.433   0.425   0.431   0.450   0.445   0.429   0.437   0.426   0.431   0.472   0.455   0.466   0.499   0.510   0.497   0.504   0.510   0.550   0.531   0.558   0.555   0.542   0.575   0.565   0.541   0.512   0.529   0.522   0.490   0.451   0.475   0.458   0.433   0.424   0.465   0.490   0.498   0.444   0.459   0.454   0.451   0.472   0.462   0.469   0.438   0.435   0.408   0.437   0.500   0.534   0.547   0.561   0.577   0.570   0.538   0.530   0.513   0.510   0.499   0.504   0.486   0.515   0.517   0.478   0.500   0.475   0.492   0.489   0.487   0.511   0.540   0.499   0.458   0.464   0.432   0.439   0.452   0.448   0.474   0.467   0.439   0.396   0.420   0.415   0.420   0.413   0.448   0.473   0.461   0.494   0.483   0.484   0.472   0.479   0.478   0.458   0.477   0.465   0.483   0.499   0.498   0.506   0.516   0.477   0.468   0.443   0.426   0.446   0.455   0.437   0.436   0.418   0.408   0.437   0.416   0.432   0.430   0.454   0.441   0.411   0.430   0.447   0.447   0.443   0.433   0.450   0.467   0.474   0.516   0.491   0.502   0.466   0.440   0.460   0.490   0.535   0.550   0.533   0.486   0.490   0.442   0.462   0.454   0.446   0.464   0.440   0.411
    84.70    0.559   0.549   0.569   0.546   0.535   0.520   0.524   0.532   0.516   0.528   0.516   0.491   0.554   0.563   0.536   0.519   0.537   0.511   0.497   0.482   0.521   0.520   0.499   0.488   0.472   0.497   0.454   0.444   0.475   0.467   0.466   0.400   0.400   0.443   0.437   0.467   0.473   0.422   0.439   0.451   0.447   0.457   0.470   0.442   0.456   0.445   0.443   0.413   0.447   0.432   0.460   0.441   0.413   0.453   0.455   0.464   0.478   0.489   0.474   0.501   0.471   0.479   0.502   0.520   0.506   0.555   0.609   0.581   0.548   0.554   0.548   0.524   0.526   0.531   0.470   0.497   0.455   0.424   0.434   0.440   0.468   0.471   0.470   0.451   0.468   0.449   0.456   0.428   0.473   0.457   0.458   0.444   0.456   0.439   0.481   0.518   0.508   0.542   0.590   0.561   0.554   0.526   0.526   0.499   0.487   0.489   0.493   0.503   0.504   0.496   0.509   0.499   0.490   0.490   0.476   0.486   0.517   0.474   0.429   0.443   0.430   0.412   0.430   0.459   0.449   0.475   0.470   0.437   0.412   0.444   0.467   0.459   0.451   0.442   0.468   0.499   0.460   0.492   0.469   0.457   0.450   0.422   0.458   0.474   0.495   0.518   0.502   0.505   0.487   0.481   0.508   0.467   0.426   0.434   0.468   0.438   0.416   0.387   0.412   0.433   0.445   0.406   0.408   0.442   0.439   0.421   0.443   0.420   0.445   0.430   0.456   0.487   0.480   0.483   0.472   0.480   0.479   0.443   0.481   0.496   0.564   0.553   0.540   0.534   0.507   0.481   0.458   0.470   0.473   0.493   0.474   0.426   0.435
    75.40    0.548   0.579   0.572   0.552   0.536   0.518   0.510   0.529   0.543   0.526   0.515   0.502   0.523   0.528   0.544   0.537   0.523   0.509   0.518   0.524   0.532   0.515   0.502   0.472   0.484   0.512   0.485   0.477   0.503   0.490   0.462   0.440   0.412   0.433   0.449   0.454   0.445   0.415   0.421   0.429   0.431   0.470   0.462   0.485   0.496   0.520   0.490   0.442   0.447   0.447   0.452   0.450   0.441   0.425   0.451   0.460   0.466   0.494   0.513   0.503   0.489   0.491   0.491   0.508   0.515   0.552   0.583   0.577   0.577   0.533   0.535   0.549   0.544   0.534   0.521   0.492   0.511   0.459   0.464   0.458   0.459   0.467   0.475   0.455   0.490   0.499   0.489   0.487   0.511   0.478   0.456   0.456   0.476   0.447   0.490   0.503   0.507   0.516   0.584   0.575   0.540   0.475   0.488   0.475   0.489   0.479   0.463   0.486   0.520   0.508   0.535   0.547   0.510   0.501   0.501   0.472   0.458   0.467   0.454   0.450   0.430   0.440   0.438   0.456   0.452   0.432   0.425   0.417   0.444   0.425   0.465   0.458   0.447   0.461   0.474   0.485   0.475   0.479   0.468   0.446   0.466   0.455   0.444   0.465   0.491   0.481   0.482   0.505   0.491   0.478   0.496   0.462   0.474   0.470   0.445   0.452   0.414   0.381   0.411   0.415   0.409   0.394   0.406   0.437   0.455   0.440   0.411   0.430   0.448   0.458   0.438   0.481   0.509   0.478   0.459   0.471   0.477   0.481   0.483   0.482   0.526   0.562   0.523   0.517   0.518   0.491   0.442   0.461   0.461   0.489   0.482   0.466   0.455
    66.10    0.552   0.553   0.572   0.564   0.550   0.549   0.552   0.527   0.528   0.508   0.510   0.477   0.508   0.530   0.530   0.544   0.528   0.524   0.529   0.525   0.533   0.516   0.494   0.478   0.463   0.473   0.479   0.474   0.511   0.494   0.470   0.472   0.470   0.493   0.439   0.451   0.475   0.455   0.424   0.464   0.488   0.498   0.471   0.514   0.531   0.526   0.500   0.463   0.461   0.452   0.463   0.415   0.419   0.427   0.440   0.466   0.493   0.493   0.503   0.504   0.499   0.492   0.519   0.526   0.494   0.551   0.571   0.583   0.526   0.565   0.509   0.522   0.505   0.503   0.502   0.521   0.491   0.478   0.486   0.439   0.460   0.459   0.495   0.488   0.503   0.498   0.508   0.503   0.493   0.480   0.464   0.447   0.442   0.450   0.474   0.492   0.511   0.542   0.561   0.573   0.532   0.489   0.488   0.471   0.501   0.468   0.478   0.482   0.511   0.476   0.522   0.522   0.525   0.515   0.486   0.500   0.486   0.471   0.439   0.454   0.453   0.476   0.484   0.448   0.465   0.440   0.418   0.454   0.470   0.445   0.431   0.441   0.459   0.456   0.462   0.474   0.449   0.475   0.482   0.452   0.474   0.443   0.476   0.440   0.463   0.470   0.492   0.517   0.497   0.463   0.461   0.477   0.487   0.503   0.447   0.425   0.426   0.403   0.422   0.400   0.401   0.426   0.432   0.461   0.460   0.476   0.463   0.481   0.446   0.443   0.460   0.458   0.467   0.470   0.459   0.482   0.473   0.463   0.462   0.476   0.520   0.541   0.534   0.516   0.513   0.514   0.474   0.472   0.470   0.484   0.426   0.440   0.472
    56.80    0.611   0.605   0.595   0.567   0.520   0.538   0.515   0.518   0.527   0.555   0.534   0.523   0.495   0.488   0.517   0.519   0.541   0.510   0.490   0.527   0.542   0.552   0.512   0.463   0.473   0.493   0.504   0.467   0.505   0.495   0.483   0.482   0.463   0.480   0.467   0.483   0.472   0.465   0.462   0.477   0.509   0.489   0.487   0.496   0.499   0.490   0.498   0.474   0.477   0.479   0.468   0.446   0.411   0.434   0.450   0.485   0.462   0.511   0.498   0.498   0.500   0.551   0.524   0.552   0.547   0.529   0.580   0.555   0.537   0.523   0.525   0.545   0.514   0.507   0.505   0.475   0.502   0.485   0.478   0.458   0.456   0.445   0.475   0.501   0.524   0.500   0.513   0.502   0.479   0.436   0.456   0.483   0.476   0.470   0.461   0.484   0.517   0.553   0.569   0.562   0.560   0.528   0.521   0.501   0.495   0.497   0.503   0.492   0.462   0.493   0.530   0.546   0.496   0.552   0.544   0.517   0.488   0.489   0.456   0.489   0.503   0.519   0.478   0.469   0.468   0.431   0.413   0.440   0.439   0.434   0.442   0.452   0.472   0.463   0.449   0.433   0.436   0.443   0.464   0.466   0.472   0.474   0.469   0.457   0.475   0.483   0.455   0.481   0.490   0.460   0.469   0.460   0.453   0.470   0.454   0.456   0.428   0.419   0.415   0.410   0.445   0.430   0.473   0.487   0.449   0.457   0.461   0.480   0.452   0.464   0.466   0.420   0.442   0.448   0.443   0.442   0.460   0.441   0.436   0.485   0.489   0.507   0.515   0.507   0.474   0.486   0.475   0.474   0.474   0.478   0.463   0.413   0.452
    47.50    0.570   0.576   0.568   0.545   0.504   0.471   0.469   0.497   0.540   0.524   0.536   0.535   0.501   0.481   0.525   0.522   0.502   0.524   0.530   0.522   0.566   0.546   0.509   0.498   0.477   0.488   0.471   0.456   0.484   0.516   0.505   0.521   0.522   0.488   0.488   0.542   0.501   0.482   0.486   0.498   0.517   0.493   0.464   0.509   0.514   0.517   0.489   0.483   0.498   0.500   0.475   0.438   0.415   0.418   0.447   0.430   0.470   0.519   0.514   0.513   0.517   0.576   0.536   0.531   0.545   0.584   0.555   0.556   0.515   0.505   0.521   0.525   0.516   0.495   0.497   0.478   0.490   0.494   0.471   0.460   0.452   0.465   0.468   0.499   0.512   0.489   0.489   0.499   0.463   0.459   0.428   0.431   0.469   0.471   0.478   0.488   0.523   0.542   0.581   0.558   0.528   0.521   0.530   0.516   0.478   0.502   0.498   0.493   0.489   0.471   0.514   0.491   0.497   0.531   0.550   0.525   0.516   0.497   0.464   0.490   0.513   0.520   0.498   0.482   0.488   0.441   0.454   0.435   0.418   0.415   0.425   0.428   0.486   0.475   0.430   0.412   0.446   0.426   0.452   0.466   0.464   0.485   0.477   0.457   0.452   0.460   0.472   0.477   0.475   0.501   0.497   0.470   0.466   0.441   0.445   0.477   0.425   0.445   0.453   0.427   0.418   0.451   0.448   0.444   0.465   0.458   0.437   0.446   0.467   0.500   0.473   0.465   0.484   0.497   0.504   0.462   0.433   0.440   0.472   0.482   0.486   0.494   0.508   0.470   0.467   0.472   0.481   0.465   0.478   0.489   0.472   0.419   0.425
    38.20    0.538   0.530   0.542   0.505   0.474   0.474   0.440   0.466   0.499   0.539   0.523   0.525   0.490   0.489   0.493   0.531   0.523   0.523   0.562   0.546   0.556   0.522   0.484   0.496   0.462   0.461   0.471   0.446   0.434   0.477   0.498   0.522   0.513   0.516   0.495   0.515   0.478   0.519   0.516   0.531   0.525   0.527   0.500   0.496   0.506   0.497   0.491   0.497   0.489   0.500   0.446   0.433   0.420   0.419   0.402   0.460   0.476   0.483   0.506   0.563   0.593   0.595   0.586   0.589   0.578   0.571   0.534   0.524   0.514   0.470   0.474   0.481   0.482   0.475   0.498   0.509   0.481   0.474   0.455   0.468   0.484   0.459   0.469   0.488   0.487   0.486   0.455   0.484   0.501   0.480   0.457   0.453   0.483   0.471   0.503   0.519   0.551   0.560   0.538   0.547   0.539   0.545   0.511   0.480   0.472   0.504   0.522   0.497   0.530   0.526   0.511   0.517   0.495   0.511   0.537   0.538   0.522   0.515   0.513   0.493   0.509   0.515   0.456   0.460   0.461   0.451   0.462   0.433   0.414   0.439   0.438   0.460   0.513   0.468   0.458   0.446   0.451   0.426   0.433   0.450   0.448   0.458   0.464   0.442   0.436   0.478   0.489   0.446   0.467   0.484   0.484   0.464   0.482   0.438   0.453   0.480   0.477   0.484   0.465   0.479   0.464   0.444   0.472   0.452   0.437   0.407   0.434   0.436   0.475   0.487   0.457   0.465   0.509   0.518   0.505   0.457   0.431   0.445   0.461   0.497   0.489   0.497   0.511   0.465   0.464   0.475   0.494   0.468   0.487   0.469   0.447   0.448   0.433
    28.90    0.503   0.538   0.491   0.517   0.486   0.477   0.465   0.447   0.489   0.519   0.520   0.483   0.499   0.491   0.480   0.503   0.516   0.528   0.558   0.545   0.517   0.492   0.479   0.489   0.442   0.466   0.460   0.433   0.468   0.468   0.485   0.500   0.534   0.526   0.544   0.521   0.510   0.482   0.498   0.510   0.506   0.523   0.510   0.530   0.511   0.504   0.500   0.515   0.500   0.482   0.486   0.457   0.398   0.398   0.403   0.461   0.499   0.498   0.537   0.524   0.581   0.549   0.567   0.588   0.574   0.553   0.524   0.479   0.461   0.467   0.423   0.489   0.464   0.485   0.504   0.511   0.479   0.443   0.446   0.443   0.476   0.456   0.431   0.439   0.448   0.455   0.428   0.446   0.493   0.489   0.478   0.480   0.480   0.504   0.557   0.548   0.541   0.557   0.560   0.528   0.556   0.561   0.496   0.482   0.488   0.515   0.513   0.524   0.540   0.523   0.522   0.507   0.504   0.527   0.538   0.532   0.526   0.501   0.516   0.487   0.509   0.506   0.463   0.471   0.455   0.454   0.452   0.441   0.429   0.443   0.481   0.481   0.514   0.483   0.482   0.475   0.458   0.484   0.460   0.489   0.470   0.442   0.437   0.441   0.452   0.459   0.459   0.449   0.450   0.489   0.472   0.453   0.458   0.439   0.448   0.462   0.488   0.483   0.460   0.472   0.484   0.484   0.475   0.468   0.465   0.449   0.434   0.455   0.438   0.453   0.487   0.490   0.516   0.509   0.516   0.490   0.452   0.442   0.469   0.488   0.505   0.492   0.482   0.482   0.476   0.445   0.475   0.442   0.456   0.484   0.494   0.450   0.462
    19.60    0.491   0.509   0.514   0.532   0.487   0.478   0.416   0.424   0.468   0.443   0.496   0.485   0.500   0.469   0.484   0.515   0.535   0.563   0.534   0.503   0.472   0.482   0.509   0.480   0.445   0.466   0.473   0.477   0.499   0.474   0.500   0.506   0.531   0.542   0.542   0.524   0.484   0.465   0.501   0.504   0.515   0.494   0.506   0.487   0.462   0.480   0.512   0.506   0.517   0.537   0.513   0.478   0.501   0.477   0.479   0.512   0.527   0.546   0.532   0.521   0.554   0.551   0.533   0.546   0.524   0.526   0.499   0.456   0.432   0.454   0.466   0.455   0.507   0.484   0.501   0.532   0.508   0.457   0.478   0.459   0.436   0.441   0.424   0.397   0.395   0.449   0.458   0.431   0.492   0.480   0.483   0.473   0.489   0.499   0.537   0.544   0.550   0.557   0.575   0.555   0.576   0.564   0.581   0.540   0.555   0.510   0.518   0.503   0.498   0.480   0.467   0.469   0.516   0.544   0.572   0.548   0.544   0.499   0.504   0.512   0.480   0.498   0.474   0.451   0.467   0.457   0.471   0.464   0.482   0.447   0.459   0.482   0.478   0.501   0.487   0.424   0.453   0.460   0.458   0.487   0.445   0.438   0.434   0.442   0.460   0.441   0.437   0.467   0.472   0.479   0.459   0.446   0.425   0.443   0.437   0.466   0.455   0.502   0.479   0.497   0.488   0.509   0.454   0.444   0.426   0.423   0.437   0.455   0.446   0.448   0.478   0.487   0.496   0.526   0.509   0.510   0.492   0.454   0.458   0.509   0.488   0.508   0.528   0.495   0.481   0.464   0.439   0.447   0.442   0.445   0.455   0.443   0.444
    10.30    0.463   0.502   0.514   0.521   0.461   0.457   0.426   0.413   0.395   0.462   0.485   0.496   0.505   0.470   0.481   0.474   0.503   0.503   0.478   0.487   0.473   0.486   0.485   0.462   0.438   0.471   0.499   0.502   0.523   0.481   0.516   0.510   0.508   0.517   0.533   0.532   0.526   0.493   0.468   0.525   0.509   0.480   0.485   0.518   0.510   0.473   0.514   0.526   0.518   0.506   0.501   0.484   0.510   0.517   0.528   0.544   0.566   0.557   0.512   0.546   0.520   0.537   0.542   0.535   0.526   0.489   0.504   0.481   0.450   0.448   0.456   0.473   0.478   0.492   0.491   0.495   0.504   0.480   0.440   0.462   0.426   0.425   0.455   0.440   0.438   0.399   0.405   0.438   0.475   0.481   0.482   0.472   0.468   0.489   0.508   0.528   0.549   0.545   0.544   0.537   0.546   0.602   0.624   0.543   0.559   0.533   0.542   0.521   0.467   0.465   0.458   0.477   0.511   0.549   0.555   0.584   0.529   0.526   0.541   0.515   0.508   0.472   0.469   0.447   0.490   0.458   0.489   0.498   0.474   0.477   0.463   0.462   0.470   0.504   0.483   0.454   0.430   0.432   0.434   0.464   0.434   0.455   0.443   0.425   0.430   0.452   0.456   0.458   0.467   0.486   0.496   0.459   0.436   0.467   0.472   0.445   0.433   0.472   0.494   0.499   0.475   0.471   0.470   0.473   0.435   0.435   0.463   0.466   0.431   0.463   0.474   0.478   0.534   0.507   0.514   0.508   0.505   0.474   0.497   0.515   0.503   0.520   0.501   0.464   0.463   0.477   0.474   0.447   0.429   0.421   0.415   0.408   0.418
     1.00    0.477   0.482   0.491   0.476   0.489   0.449   0.418   0.406   0.419   0.439   0.456   0.493   0.458   0.494   0.456   0.456   0.470   0.450   0.463   0.449   0.446   0.443   0.439   0.455   0.478   0.509   0.511   0.525   0.556   0.503   0.499   0.474   0.528   0.485   0.525   0.528   0.544   0.504   0.480   0.493   0.482   0.494   0.521   0.486   0.490   0.474   0.503   0.526   0.500   0.476   0.489   0.477   0.480   0.492   0.519   0.539   0.570   0.549   0.522   0.517   0.548   0.522   0.529   0.488   0.481   0.461   0.465   0.487   0.463   0.476   0.457   0.443   0.449   0.477   0.495   0.481   0.476   0.481   0.459   0.448   0.441   0.430   0.460   0.437   0.437   0.407   0.423   0.433   0.437   0.469   0.464   0.438   0.461   0.476   0.468   0.483   0.518   0.529   0.558   0.582   0.568   0.585   0.567   0.541   0.521   0.520   0.541   0.502   0.483   0.488   0.494   0.499   0.512   0.488   0.533   0.573   0.544   0.556   0.545   0.534   0.469   0.472   0.474   0.502   0.501   0.474   0.500   0.472   0.483   0.479   0.480   0.500   0.483   0.483   0.464   0.452   0.430   0.427   0.478   0.468   0.437   0.430   0.417   0.420   0.395   0.434   0.458   0.483   0.504   0.504   0.504   0.477   0.471   0.474   0.490   0.497   0.477   0.464   0.481   0.491   0.507   0.503   0.475   0.469   0.464   0.448   0.455   0.472   0.420   0.452   0.478   0.518   0.524   0.530   0.533   0.543   0.527   0.501   0.503   0.489   0.493   0.506   0.465   0.446   0.444   0.452   0.450   0.431   0.442   0.451   0.406   0.431   0.422

   Height   Standard deviation at grid points for the v component:
   354.40    0.434   0.395   0.415   0.410   0.368   0.380   0.371   0.365   0.365   0.382   0.368   0.377   0.357   0.368   0.377   0.359   0.385   0.388   0.396   0.377   0.401   0.381   0.370   0.380   0.402   0.391   0.391   0.368   0.369   0.368   0.365   0.362   0.343   0.340   0.358   0.381   0.395   0.403   0.385   0.397   0.395   0.394   0.399   0.382   0.389   0.383   0.388   0.367   0.366   0.377   0.388   0.403   0.404   0.408   0.391   0.389   0.386   0.397   0.402   0.398   0.381   0.381   0.380   0.402   0.400   0.408   0.389   0.377   0.360   0.364   0.364   0.338   0.343   0.352   0.368   0.374   0.363   0.340   0.343   0.354   0.366   0.391   0.380   0.378   0.387   0.374   0.393   0.401   0.413   0.409   0.404   0.407   0.426   0.418   0.417   0.419   0.420   0.381   0.377   0.387   0.385   0.375   0.372   0.357   0.366   0.357   0.353   0.353   0.352   0.349   0.345   0.354   0.357   0.361   0.357   0.362   0.367   0.373   0.361   0.361   0.361   0.391   0.390   0.403   0.383   0.400   0.415   0.412   0.432   0.406   0.436   0.425   0.402   0.410   0.423   0.421   0.423   0.394   0.390   0.406   0.387   0.397   0.396   0.368   0.351   0.373   0.386   0.366   0.371   0.382   0.363   0.351   0.361   0.372   0.370   0.368   0.383   0.381   0.391   0.370   0.377   0.357   0.365   0.363   0.367   0.376   0.372   0.347   0.344   0.357   0.379   0.366   0.395   0.398   0.377   0.371   0.387   0.389   0.382   0.396   0.397   0.416   0.394   0.404   0.383   0.371   0.358   0.367   0.360   0.358   0.382   0.386   0.396
   345.10    0.412   0.397   0.381   0.372   0.373   0.375   0.369   0.365   0.359   0.382   0.379   0.368   0.362   0.351   0.352   0.350   0.369   0.387   0.387   0.381   0.407   0.381   0.368   0.386   0.407   0.412   0.398   0.406   0.375   0.363   0.357   0.357   0.348   0.339   0.364   0.365   0.382   0.379   0.393   0.388   0.403   0.384   0.383   0.397   0.396   0.372   0.375   0.372   0.384   0.377   0.381   0.376   0.400   0.408   0.414   0.405   0.411   0.397   0.399   0.380   0.378   0.366   0.373   0.379   0.410   0.404   0.397   0.366   0.356   0.360   0.365   0.361   0.355   0.354   0.361   0.349   0.358   0.358   0.325   0.345   0.360   0.376   0.384   0.401   0.388   0.396   0.396   0.402   0.421   0.425   0.397   0.413   0.413   0.415   0.434   0.417   0.398   0.381   0.395   0.384   0.393   0.391   0.382   0.357   0.348   0.355   0.351   0.362   0.357   0.363   0.356   0.369   0.367   0.368   0.382   0.386   0.377   0.377   0.396   0.382   0.370   0.396   0.392   0.420   0.405   0.419   0.429   0.418   0.420   0.413   0.434   0.448   0.439   0.442   0.458   0.427   0.426   0.405   0.400   0.387   0.392   0.395   0.389   0.376   0.381   0.361   0.380   0.388   0.384   0.370   0.366   0.355   0.364   0.371   0.383   0.395   0.386   0.386   0.390   0.386   0.380   0.367   0.341   0.354   0.366   0.375   0.373   0.342   0.346   0.341   0.366   0.384   0.386   0.369   0.372   0.362   0.377   0.382   0.391   0.401   0.400   0.405   0.400   0.402   0.389   0.376   0.374   0.355   0.363   0.374   0.383   0.389   0.395
   335.80    0.389   0.403   0.399   0.369   0.365   0.368   0.349   0.360   0.380   0.367   0.370   0.348   0.356   0.371   0.368   0.358   0.373   0.388   0.387   0.399   0.403   0.385   0.379   0.377   0.409   0.408   0.401   0.407   0.380   0.391   0.346   0.359   0.347   0.358   0.365   0.371   0.393   0.395   0.393   0.387   0.405   0.380   0.393   0.375   0.361   0.376   0.360   0.373   0.370   0.362   0.377   0.392   0.375   0.383   0.402   0.412   0.405   0.404   0.394   0.386   0.370   0.365   0.369   0.369   0.383   0.401   0.374   0.375   0.383   0.373   0.367   0.358   0.355   0.343   0.351   0.353   0.362   0.326   0.319   0.329   0.349   0.365   0.379   0.377   0.384   0.388   0.388   0.407   0.421   0.430   0.422   0.401   0.399   0.423   0.397   0.416   0.409   0.403   0.418   0.400   0.411   0.409   0.380   0.374   0.371   0.363   0.355   0.348   0.366   0.367   0.353   0.374   0.380   0.370   0.366   0.354   0.361   0.373   0.398   0.400   0.397   0.390   0.400   0.418   0.402   0.421   0.415   0.421   0.415   0.414   0.447   0.438   0.442   0.424   0.438   0.427   0.406   0.390   0.376   0.362   0.371   0.395   0.398   0.382   0.386   0.374   0.375   0.384   0.377   0.381   0.376   0.377   0.385   0.381   0.381   0.392   0.370   0.377   0.372   0.372   0.374   0.383   0.357   0.340   0.329   0.347   0.362   0.367   0.364   0.377   0.388   0.377   0.381   0.363   0.365   0.371   0.369   0.379   0.388   0.396   0.381   0.371   0.379   0.383   0.365   0.367   0.380   0.354   0.375   0.396   0.397   0.410   0.404
   326.50    0.381   0.394   0.385   0.379   0.352   0.340   0.327   0.362   0.392   0.369   0.368   0.362   0.369   0.352   0.367   0.359   0.370   0.379   0.398   0.411   0.407   0.394   0.369   0.373   0.410   0.414   0.388   0.409   0.395   0.369   0.358   0.346   0.356   0.369   0.369   0.376   0.381   0.399   0.394   0.392   0.400   0.396   0.386   0.355   0.366   0.376   0.365   0.358   0.375   0.376   0.393   0.378   0.377   0.377   0.410   0.402   0.402   0.408   0.392   0.383   0.375   0.384   0.398   0.395   0.385   0.403   0.393   0.378   0.375   0.383   0.373   0.388   0.362   0.351   0.348   0.360   0.338   0.335   0.328   0.320   0.328   0.364   0.366   0.364   0.385   0.370   0.385   0.393   0.415   0.407   0.409   0.401   0.393   0.415   0.416   0.407   0.398   0.409   0.397   0.388   0.395   0.404   0.379   0.381   0.364   0.350   0.369   0.359   0.349   0.358   0.374   0.372   0.376   0.381   0.384   0.367   0.354   0.366   0.380   0.391   0.403   0.431   0.416   0.413   0.406   0.399   0.422   0.411   0.405   0.426   0.414   0.430   0.436   0.432   0.430   0.427   0.417   0.396   0.360   0.367   0.380   0.399   0.400   0.400   0.411   0.398   0.391   0.378   0.384   0.377   0.385   0.408   0.418   0.403   0.410   0.386   0.393   0.390   0.387   0.370   0.379   0.373   0.368   0.352   0.341   0.356   0.355   0.350   0.365   0.363   0.362   0.375   0.403   0.384   0.385   0.366   0.370   0.370   0.369   0.374   0.376   0.375   0.367   0.371   0.379   0.380   0.383   0.370   0.388   0.397   0.397   0.427   0.426
[...]
   103.30    0.230   0.239   0.237   0.236   0.240   0.236   0.235   0.236   0.231   0.241   0.238   0.232   0.231   0.234   0.234   0.229   0.230   0.233   0.227   0.233   0.227   0.229   0.233   0.220   0.229   0.227   0.232   0.234   0.236   0.240   0.240   0.239   0.239   0.237   0.236   0.243   0.239   0.237   0.239   0.229   0.238   0.233   0.240   0.234   0.238   0.239   0.248   0.246   0.235   0.229   0.230   0.237   0.236   0.238   0.233   0.231   0.230   0.238   0.227   0.238   0.243   0.236   0.239   0.241   0.241   0.247   0.244   0.242   0.244   0.242   0.242   0.237   0.246   0.240   0.232   0.234   0.234   0.237   0.239   0.239   0.228   0.225   0.234   0.235   0.240   0.241   0.239   0.243   0.251   0.240   0.240   0.242   0.238   0.241   0.236   0.233   0.231   0.234   0.234   0.225   0.231   0.241   0.232   0.238   0.239   0.237   0.231   0.227   0.237   0.238   0.237   0.239   0.238   0.235   0.232   0.234   0.230   0.229   0.240   0.236   0.238   0.241   0.241   0.234   0.241   0.246   0.248   0.245   0.242   0.242   0.236   0.241   0.227   0.232   0.232   0.233   0.235   0.242   0.244   0.247   0.249   0.244   0.248   0.244   0.236   0.242   0.245   0.243   0.233   0.235   0.241   0.239   0.237   0.230   0.231   0.233   0.234   0.234   0.243   0.245   0.234   0.237   0.237   0.231   0.227   0.227   0.228   0.238   0.235   0.239   0.235   0.239   0.240   0.232   0.234   0.238   0.234   0.233   0.230   0.235   0.235   0.230   0.232   0.239   0.242   0.241   0.240   0.235   0.234   0.235   0.243   0.242   0.243
    94.00    0.231   0.235   0.236   0.233   0.244   0.241   0.235   0.231   0.236   0.229   0.230   0.235   0.236   0.233   0.233   0.228   0.227   0.236   0.232   0.230   0.234   0.238   0.227   0.220   0.219   0.232   0.232   0.233   0.235   0.244   0.245   0.247   0.246   0.235   0.234   0.235   0.240   0.237   0.231   0.234   0.236   0.241   0.239   0.246   0.247   0.245   0.242   0.231   0.237   0.235   0.229   0.240   0.240   0.225   0.230   0.231   0.234   0.244   0.248   0.246   0.243   0.240   0.241   0.244   0.244   0.242   0.242   0.244   0.245   0.236   0.245   0.243   0.246   0.247   0.230   0.228   0.235   0.230   0.231   0.227   0.236   0.234   0.234   0.239   0.238   0.250   0.235   0.247   0.246   0.244   0.241   0.243   0.247   0.242   0.241   0.238   0.240   0.237   0.239   0.234   0.239   0.234   0.235   0.233   0.238   0.234   0.234   0.229   0.237   0.235   0.238   0.235   0.233   0.239   0.239   0.239   0.228   0.231   0.231   0.246   0.242   0.234   0.233   0.231   0.232   0.240   0.244   0.244   0.239   0.232   0.236   0.237   0.231   0.237   0.233   0.241   0.241   0.241   0.242   0.250   0.250   0.249   0.241   0.236   0.232   0.236   0.241   0.236   0.237   0.236   0.242   0.243   0.235   0.233   0.231   0.241   0.238   0.234   0.230   0.239   0.238   0.234   0.238   0.235   0.233   0.234   0.230   0.229   0.232   0.233   0.234   0.239   0.234   0.233   0.234   0.241   0.244   0.238   0.232   0.233   0.238   0.240   0.235   0.233   0.240   0.246   0.247   0.240   0.243   0.248   0.250   0.241   0.245
    84.70    0.232   0.235   0.230   0.233   0.242   0.242   0.236   0.241   0.236   0.233   0.231   0.226   0.225   0.240   0.229   0.228   0.221   0.236   0.234   0.233   0.236   0.235   0.230   0.234   0.226   0.235   0.234   0.232   0.245   0.243   0.251   0.247   0.233   0.233   0.232   0.232   0.233   0.239   0.235   0.240   0.242   0.247   0.238   0.245   0.245   0.236   0.233   0.236   0.234   0.235   0.242   0.241   0.237   0.229   0.228   0.227   0.233   0.239   0.236   0.238   0.245   0.241   0.242   0.238   0.237   0.238   0.248   0.241   0.244   0.247   0.246   0.247   0.244   0.245   0.247   0.238   0.236   0.238   0.239   0.231   0.236   0.237   0.237   0.239   0.241   0.247   0.245   0.245   0.251   0.258   0.248   0.242   0.249   0.241   0.244   0.246   0.245   0.243   0.239   0.247   0.241   0.243   0.241   0.249   0.243   0.239   0.233   0.233   0.235   0.240   0.236   0.242   0.243   0.242   0.242   0.244   0.237   0.235   0.242   0.240   0.235   0.236   0.238   0.236   0.232   0.237   0.240   0.247   0.241   0.232   0.238   0.235   0.232   0.229   0.239   0.244   0.238   0.246   0.242   0.248   0.248   0.239   0.234   0.232   0.236   0.238   0.241   0.237   0.232   0.237   0.237   0.237   0.231   0.234   0.239   0.236   0.244   0.238   0.232   0.238   0.241   0.231   0.230   0.233   0.234   0.236   0.230   0.226   0.227   0.229   0.234   0.235   0.236   0.231   0.239   0.242   0.241   0.234   0.222   0.231   0.239   0.235   0.234   0.237   0.239   0.245   0.251   0.249   0.252   0.259   0.252   0.254   0.246
    75.40    0.231   0.235   0.237   0.247   0.242   0.242   0.241   0.231   0.242   0.235   0.236   0.229   0.240   0.243   0.239   0.244   0.235   0.235   0.248   0.237   0.237   0.232   0.234   0.231   0.227   0.231   0.229   0.232   0.238   0.245   0.244   0.248   0.245   0.237   0.223   0.235   0.242   0.229   0.233   0.237   0.242   0.235   0.234   0.241   0.235   0.231   0.231   0.235   0.233   0.230   0.235   0.233   0.226   0.232   0.229   0.215   0.231   0.236   0.229   0.231   0.239   0.225   0.235   0.236   0.233   0.239   0.246   0.246   0.252   0.251   0.255   0.245   0.249   0.251   0.241   0.237   0.247   0.240   0.241   0.232   0.229   0.238   0.232   0.240   0.243   0.251   0.250   0.249   0.252   0.253   0.251   0.247   0.246   0.244   0.252   0.246   0.242   0.251   0.247   0.243   0.243   0.243   0.246   0.248   0.243   0.233   0.237   0.237   0.232   0.239   0.233   0.236   0.237   0.241   0.245   0.240   0.238   0.235   0.237   0.233   0.233   0.238   0.241   0.240   0.238   0.240   0.240   0.245   0.241   0.234   0.248   0.245   0.231   0.239   0.245   0.246   0.242   0.238   0.239   0.246   0.238   0.231   0.229   0.228   0.233   0.239   0.243   0.237   0.227   0.239   0.231   0.231   0.231   0.233   0.236   0.249   0.244   0.235   0.238   0.235   0.231   0.235   0.234   0.220   0.230   0.241   0.239   0.233   0.230   0.231   0.236   0.238   0.231   0.240   0.235   0.240   0.239   0.233   0.228   0.227   0.227   0.236   0.234   0.241   0.236   0.238   0.245   0.248   0.249   0.253   0.249   0.250   0.245
    66.10    0.233   0.240   0.235   0.242   0.243   0.233   0.230   0.238   0.235   0.239   0.222   0.229   0.238   0.230   0.234   0.244   0.233   0.237   0.239   0.237   0.239   0.232   0.234   0.241   0.229   0.232   0.240   0.240   0.237   0.246   0.252   0.246   0.241   0.247   0.229   0.237   0.241   0.239   0.238   0.238   0.235   0.237   0.237   0.237   0.232   0.232   0.230   0.234   0.224   0.233   0.233   0.223   0.225   0.225   0.228   0.227   0.229   0.224   0.224   0.227   0.231   0.243   0.240   0.239   0.239   0.242   0.247   0.250   0.249   0.250   0.248   0.242   0.251   0.252   0.254   0.249   0.242   0.244   0.240   0.233   0.235   0.235   0.232   0.238   0.246   0.251   0.251   0.250   0.252   0.247   0.246   0.235   0.248   0.245   0.241   0.239   0.241   0.242   0.243   0.247   0.241   0.246   0.244   0.249   0.246   0.247   0.245   0.241   0.238   0.239   0.245   0.232   0.236   0.235   0.247   0.239   0.231   0.237   0.234   0.245   0.250   0.240   0.250   0.247   0.242   0.237   0.237   0.239   0.234   0.232   0.236   0.241   0.236   0.242   0.239   0.242   0.240   0.243   0.234   0.236   0.238   0.245   0.241   0.236   0.236   0.244   0.233   0.236   0.233   0.239   0.241   0.238   0.241   0.234   0.237   0.235   0.246   0.238   0.238   0.226   0.229   0.232   0.237   0.238   0.224   0.239   0.239   0.230   0.233   0.228   0.237   0.240   0.239   0.242   0.240   0.241   0.239   0.235   0.231   0.227   0.228   0.229   0.237   0.238   0.236   0.240   0.252   0.245   0.249   0.260   0.256   0.251   0.237
    56.80    0.237   0.237   0.240   0.235   0.225   0.232   0.228   0.234   0.236   0.236   0.232   0.234   0.237   0.241   0.233   0.232   0.235   0.233   0.237   0.234   0.226   0.235   0.231   0.232   0.230   0.230   0.233   0.237   0.235   0.233   0.241   0.242   0.248   0.248   0.240   0.241   0.237   0.238   0.241   0.239   0.242   0.247   0.234   0.233   0.232   0.229   0.229   0.231   0.232   0.225   0.227   0.228   0.229   0.237   0.221   0.224   0.224   0.221   0.229   0.230   0.235   0.238   0.238   0.231   0.233   0.241   0.251   0.247   0.256   0.253   0.248   0.245   0.252   0.247   0.246   0.249   0.234   0.247   0.239   0.239   0.239   0.232   0.238   0.250   0.251   0.246   0.253   0.249   0.253   0.256   0.250   0.254   0.248   0.245   0.234   0.233   0.244   0.242   0.233   0.240   0.255   0.247   0.251   0.253   0.252   0.242   0.241   0.241   0.240   0.244   0.248   0.237   0.238   0.237   0.237   0.241   0.232   0.235   0.234   0.236   0.243   0.247   0.244   0.245   0.239   0.238   0.243   0.244   0.249   0.239   0.236   0.234   0.237   0.241   0.241   0.235   0.239   0.239   0.241   0.237   0.241   0.244   0.242   0.241   0.235   0.242   0.245   0.243   0.234   0.237   0.234   0.244   0.246   0.235   0.234   0.238   0.245   0.239   0.229   0.224   0.226   0.225   0.236   0.239   0.231   0.242   0.239   0.236   0.241   0.229   0.238   0.237   0.242   0.239   0.244   0.238   0.243   0.231   0.239   0.232   0.233   0.230   0.233   0.244   0.239   0.242   0.241   0.243   0.259   0.252   0.251   0.240   0.243
    47.50    0.233   0.238   0.231   0.236   0.230   0.230   0.237   0.238   0.243   0.238   0.252   0.245   0.247   0.245   0.240   0.221   0.232   0.245   0.236   0.229   0.227   0.236   0.236   0.236   0.232   0.235   0.231   0.225   0.237   0.243   0.241   0.242   0.233   0.240   0.233   0.231   0.231   0.232   0.234   0.227   0.232   0.236   0.244   0.238   0.235   0.235   0.231   0.231   0.227   0.225   0.229   0.226   0.232   0.230   0.227   0.226   0.219   0.224   0.228   0.227   0.230   0.238   0.237   0.233   0.240   0.236   0.238   0.246   0.246   0.245   0.247   0.254   0.253   0.250   0.240   0.239   0.242   0.244   0.247   0.242   0.237   0.237   0.242   0.247   0.245   0.238   0.243   0.241   0.238   0.244   0.248   0.249   0.253   0.243   0.237   0.241   0.240   0.236   0.235   0.242   0.249   0.238   0.246   0.245   0.244   0.245   0.246   0.241   0.241   0.238   0.247   0.232   0.226   0.234   0.232   0.230   0.238   0.239   0.242   0.241   0.237   0.242   0.241   0.245   0.245   0.240   0.238   0.246   0.240   0.240   0.237   0.241   0.243   0.241   0.237   0.234   0.240   0.243   0.243   0.246   0.247   0.239   0.242   0.239   0.244   0.245   0.240   0.246   0.238   0.239   0.234   0.245   0.238   0.241   0.244   0.237   0.237   0.229   0.228   0.228   0.227   0.230   0.237   0.235   0.231   0.244   0.236   0.234   0.235   0.243   0.249   0.241   0.235   0.239   0.244   0.249   0.244   0.243   0.242   0.241   0.232   0.241   0.238   0.236   0.239   0.238   0.244   0.243   0.249   0.245   0.251   0.240   0.230
    38.20    0.230   0.231   0.239   0.235   0.241   0.228   0.234   0.240   0.239   0.243   0.250   0.255   0.253   0.244   0.237   0.240   0.234   0.242   0.235   0.234   0.227   0.237   0.231   0.226   0.235   0.233   0.234   0.242   0.238   0.242   0.244   0.245   0.233   0.240   0.235   0.236   0.235   0.234   0.241   0.231   0.232   0.237   0.236   0.234   0.236   0.230   0.228   0.234   0.230   0.228   0.229   0.228   0.227   0.228   0.237   0.218   0.223   0.232   0.232   0.234   0.238   0.239   0.241   0.242   0.239   0.241   0.238   0.245   0.248   0.238   0.243   0.246   0.256   0.252   0.248   0.248   0.234   0.242   0.243   0.242   0.238   0.239   0.242   0.249   0.247   0.241   0.236   0.244   0.244   0.240   0.243   0.252   0.254   0.248   0.246   0.241   0.237   0.235   0.238   0.235   0.239   0.240   0.242   0.237   0.248   0.239   0.233   0.244   0.237   0.225   0.234   0.233   0.228   0.236   0.231   0.231   0.229   0.236   0.243   0.246   0.242   0.247   0.240   0.240   0.242   0.239   0.234   0.244   0.238   0.235   0.243   0.245   0.251   0.243   0.238   0.236   0.241   0.233   0.238   0.248   0.239   0.240   0.249   0.244   0.240   0.240   0.238   0.240   0.243   0.244   0.244   0.239   0.244   0.243   0.238   0.244   0.240   0.235   0.223   0.224   0.225   0.221   0.228   0.236   0.235   0.241   0.235   0.237   0.234   0.242   0.245   0.237   0.237   0.240   0.245   0.244   0.252   0.240   0.244   0.243   0.245   0.244   0.248   0.247   0.244   0.239   0.247   0.236   0.248   0.231   0.241   0.236   0.234
    28.90    0.231   0.230   0.233   0.237   0.232   0.236   0.238   0.234   0.230   0.241   0.249   0.245   0.246   0.241   0.239   0.230   0.233   0.233   0.238   0.235   0.231   0.228   0.233   0.231   0.230   0.237   0.240   0.246   0.246   0.250   0.242   0.241   0.233   0.236   0.246   0.238   0.240   0.235   0.236   0.233   0.235   0.240   0.234   0.234   0.231   0.231   0.233   0.234   0.229   0.232   0.228   0.227   0.232   0.228   0.235   0.227   0.232   0.234   0.232   0.232   0.245   0.235   0.239   0.250   0.250   0.241   0.244   0.239   0.247   0.234   0.246   0.251   0.248   0.250   0.249   0.247   0.244   0.244   0.248   0.237   0.246   0.247   0.243   0.246   0.244   0.240   0.232   0.241   0.242   0.241   0.236   0.244   0.249   0.249   0.246   0.246   0.234   0.235   0.234   0.236   0.237   0.239   0.239   0.243   0.245   0.238   0.243   0.252   0.239   0.236   0.231   0.234   0.237   0.247   0.241   0.240   0.240   0.239   0.240   0.246   0.242   0.253   0.241   0.234   0.239   0.240   0.230   0.242   0.242   0.235   0.235   0.244   0.250   0.240   0.243   0.240   0.241   0.235   0.233   0.239   0.239   0.242   0.248   0.244   0.241   0.239   0.239   0.241   0.243   0.247   0.244   0.243   0.244   0.245   0.248   0.244   0.248   0.247   0.240   0.236   0.231   0.230   0.234   0.231   0.231   0.239   0.247   0.237   0.238   0.239   0.237   0.233   0.241   0.236   0.239   0.245   0.238   0.250   0.245   0.247   0.249   0.248   0.251   0.250   0.239   0.242   0.233   0.239   0.241   0.239   0.236   0.234   0.228
    19.60    0.237   0.229   0.233   0.238   0.236   0.232   0.231   0.237   0.231   0.231   0.239   0.238   0.236   0.238   0.237   0.234   0.233   0.241   0.238   0.235   0.235   0.231   0.228   0.243   0.236   0.241   0.252   0.250   0.250   0.243   0.238   0.236   0.237   0.236   0.237   0.244   0.244   0.242   0.236   0.229   0.230   0.231   0.231   0.229   0.225   0.226   0.233   0.244   0.241   0.237   0.230   0.230   0.228   0.236   0.229   0.233   0.234   0.232   0.238   0.243   0.243   0.243   0.243   0.244   0.250   0.245   0.247   0.238   0.245   0.246   0.257   0.254   0.253   0.257   0.255   0.257   0.248   0.240   0.249   0.244   0.242   0.240   0.247   0.245   0.248   0.245   0.243   0.244   0.241   0.232   0.232   0.238   0.241   0.235   0.244   0.238   0.241   0.239   0.234   0.238   0.237   0.241   0.240   0.243   0.238   0.242   0.243   0.255   0.246   0.248   0.236   0.230   0.234   0.239   0.248   0.240   0.234   0.230   0.235   0.236   0.246   0.253   0.242   0.244   0.240   0.244   0.235   0.234   0.233   0.234   0.228   0.230   0.241   0.241   0.234   0.240   0.237   0.245   0.243   0.234   0.237   0.240   0.238   0.242   0.246   0.245   0.231   0.247   0.242   0.244   0.245   0.246   0.248   0.254   0.248   0.239   0.249   0.239   0.250   0.247   0.233   0.239   0.234   0.238   0.243   0.239   0.241   0.238   0.237   0.236   0.236   0.227   0.233   0.230   0.236   0.239   0.245   0.239   0.246   0.240   0.242   0.249   0.254   0.246   0.237   0.237   0.232   0.240   0.237   0.240   0.238   0.228   0.224
    10.30    0.224   0.234   0.241   0.238   0.232   0.234   0.230   0.236   0.228   0.231   0.238   0.244   0.241   0.235   0.231   0.230   0.231   0.229   0.230   0.237   0.244   0.247   0.240   0.239   0.239   0.240   0.246   0.257   0.249   0.233   0.235   0.227   0.227   0.229   0.237   0.224   0.234   0.241   0.234   0.231   0.236   0.236   0.229   0.228   0.228   0.236   0.235   0.228   0.234   0.228   0.237   0.234   0.226   0.227   0.231   0.231   0.233   0.233   0.238   0.238   0.240   0.245   0.234   0.246   0.253   0.253   0.251   0.243   0.237   0.248   0.255   0.243   0.257   0.252   0.246   0.250   0.254   0.246   0.237   0.236   0.243   0.242   0.241   0.244   0.248   0.243   0.247   0.246   0.239   0.238   0.233   0.230   0.231   0.235   0.240   0.242   0.239   0.242   0.241   0.242   0.243   0.245   0.238   0.233   0.243   0.249   0.248   0.249   0.250   0.246   0.236   0.233   0.235   0.233   0.241   0.236   0.233   0.231   0.237   0.236   0.245   0.247   0.240   0.238   0.234   0.238   0.236   0.231   0.235   0.241   0.225   0.232   0.238   0.237   0.245   0.243   0.234   0.235   0.244   0.238   0.245   0.230   0.238   0.238   0.239   0.236   0.232   0.235   0.241   0.245   0.249   0.252   0.247   0.247   0.244   0.247   0.245   0.247   0.248   0.252   0.244   0.250   0.234   0.234   0.237   0.237   0.238   0.234   0.236   0.235   0.233   0.229   0.233   0.237   0.241   0.239   0.235   0.243   0.241   0.243   0.244   0.247   0.244   0.240   0.243   0.236   0.242   0.241   0.237   0.242   0.233   0.230   0.233
     1.00    0.237   0.243   0.244   0.249   0.242   0.235   0.232   0.235   0.240   0.239   0.244   0.240   0.234   0.228   0.232   0.229   0.233   0.232   0.235   0.237   0.245   0.241   0.242   0.240   0.238   0.238   0.238   0.245   0.244   0.237   0.226   0.228   0.226   0.228   0.235   0.228   0.230   0.234   0.234   0.233   0.232   0.233   0.235   0.233   0.240   0.242   0.246   0.230   0.222   0.232   0.226   0.232   0.238   0.236   0.228   0.226   0.223   0.229   0.241   0.240   0.240   0.244   0.240   0.241   0.245   0.246   0.251   0.245   0.245   0.242   0.248   0.248   0.248   0.249   0.253   0.256   0.257   0.247   0.240   0.234   0.234   0.238   0.239   0.236   0.239   0.245   0.245   0.245   0.244   0.240   0.235   0.231   0.235   0.230   0.234   0.240   0.237   0.239   0.240   0.246   0.243   0.242   0.243   0.237   0.245   0.249   0.251   0.251   0.243   0.248   0.239   0.239   0.237   0.234   0.241   0.232   0.237   0.237   0.243   0.238   0.234   0.239   0.232   0.234   0.246   0.238   0.234   0.227   0.229   0.235   0.228   0.229   0.236   0.240   0.246   0.244   0.235   0.240   0.244   0.240   0.242   0.244   0.245   0.247   0.240   0.240   0.235   0.227   0.234   0.230   0.239   0.240   0.242   0.247   0.252   0.251   0.245   0.245   0.245   0.246   0.242   0.255   0.242   0.246   0.245   0.236   0.236   0.237   0.236   0.237   0.234   0.230   0.242   0.241   0.238   0.242   0.237   0.238   0.249   0.232   0.241   0.237   0.235   0.242   0.244   0.236   0.240   0.243   0.241   0.235   0.234   0.234   0.239

   Mean standard deviation across all grid points:
      u component:    0.486 m/s
      v component:    0.381 m/s
      w component:    0.238 m/s


U-component (X) statistics from the interpolated hub point:

   Mean =   9.7063 m/s
   TI   =   5.1043 %


Processing complete.  2.15260E+05 CPU seconds used.
