
This summary file was generated by TurbSim (from OpenFAST-v3.5.3) on 19-Apr-2025 at 19:42:29.


Runtime Options:

 916078875  Random seed #1
    RANLUX  Type of random number generator
         F  Output binary HH turbulence parameters?
         F  Output formatted turbulence parameters?
         F  Output AeroDyn HH files?
         T  Output AeroDyn FF files?
         F  Output BLADED FF files?
         F  Output tower data?
         F  Output HAWC FF files?
         F  Output formatted FF files?
         T  Output coherent turbulence time step file?
 0 -  NONE  IEC turbulence models scaled to exact specified standard deviation


Turbine/Model Specifications:

        39  Vertical grid-point matrix dimension
       193  Horizontal grid-point matrix dimension
     0.250  Time step [seconds]
   900.000  Analysis time [seconds]
   900.000  Usable output time [seconds]
   177.700  Hub height [m]
   353.400  Grid height [m]
  1785.600  Grid width [m]
     0.000  Vertical flow angle [degrees]
     0.000  Horizontal flow angle [degrees]


Meteorological Boundary Conditions:

    IECKAI  IEC Kaimal spectral model
         1  IEC standard: IEC 61400-1 Ed. 3: 2005
     6.000  Percent turbulence intensity, IEC 61400-1 Ed. 3: 2005
       NTM  IEC Normal Turbulence Model
       N/A  IEC Extreme Turbulence Model (ETM) "c" parameter [m/s]
       USR  Wind profile type
    90.000  Reference height [m]
       N/A  Reference wind speed [m/s]
       N/A  Jet height [m]
       N/A  Power law exponent
     0.030  Surface roughness length [m]


Non-IEC Meteorological Boundary Conditions:

       N/A  Site latitude [degrees]
       N/A  Gradient Richardson number
       N/A  Friction or shear velocity [m/s]
       N/A  Mixing layer depth [m]
       N/A  Mean hub u'w' Reynolds stress
       N/A  Mean hub u'v' Reynolds stress
       N/A  Mean hub v'w' Reynolds stress


Spatial Coherence Models:

       IEC  u-component coherence model
       IEC  v-component coherence model
       IEC  w-component coherence model
(   12.000, 0.353E-03)  u-component coherence parameters
(   12.000, 0.353E-03)  v-component coherence parameters
(   12.000, 0.353E-03)  w-component coherence parameters
       N/A  Coherence exponent


User-Defined Profiles:

  Height   Wind Speed   Horizontal Angle
   (m)        (m/s)          (deg)      
  ------   ----------   ----------------
  353.40      10.00         318.19
  334.80      10.00         321.14
  316.20      10.00         324.10
  297.60      10.00         327.05
  279.00      10.00         330.00
  260.40      10.00         332.95
  241.80      10.00         335.90
  223.20      10.00         338.86
  204.60      10.00         341.81
  186.00      10.00         344.76
  167.40      10.00         347.71
  148.80      10.00         350.67
  130.20      10.00         353.62
  111.60      10.00         356.57
   93.00      10.00         359.52
   74.40      10.00           2.48
   55.80      10.00           5.43
   37.20      10.00           8.38
   18.60      10.00          11.33
    0.00      10.00          14.29


You have requested that the following file(s) be generated:

   /kfs3/scratch/agupta/Projects/RL_Incubator/FinalRuns_Veer/Seed4/./FFSim_Seed4/Cond00_v10.0_PL0.12_TI6.0/Seed_0/Low.bts (AeroDyn/TurbSim full-field wind file)


Turbulence Simulation Scaling Parameter Summary:

   Turbulence model used                            =  IEC Kaimal
   Turbulence characteristic                        =  User-specified
   IEC standard                                     =  IEC 61400-1 Ed. 3: 2005
   Mean wind speed at hub height                    =   10.000 m/s
   Characteristic value of standard deviation       =    0.600 m/s
   Turbulence scale                                 =   42.000 m
   u-component integral scale                       =  340.200 m
   Coherency scale                                  =  340.200 m
   Characteristic value of hub turbulence intensity =    6.000%
   Gradient Richardson number                       =    0.000

   Wind profile type                                =  Linear interpolation of user-defined profile
   Equivalent power law exponent (upper rotor disk) =    0.000
   Mean shear across rotor disk                     =    0.000 (m/s)/m
   Assumed rotor diameter                           =  353.400 m
   Surface roughness length                         =    0.030 m

   Nyquist frequency of turbulent wind field        =    2.000 Hz

   Number of time steps in the FFT                  =     3600
   Number of time steps output                      =     3600
   Number of points simulated                       =     7527


Mean Flow Angles:

   Vertical   =   0.0 degrees
   Horizontal =   0.0 degrees

Mean Wind Speed Profile:

   Height    Wind Speed   Horizontal Angle  Vertical Angle  U-comp (X)   V-comp (Y)   W-comp (Z)
     (m)        (m/s)         (degrees)       (degrees)       (m/s)        (m/s)        (m/s)   
   ------    ----------   ----------------  --------------  ----------   ----------   ----------
    354.4       10.00          318.19            0.00          7.45        -6.67         0.00
    345.1       10.00          319.51            0.00          7.60        -6.49         0.00
    335.8       10.00          320.98            0.00          7.77        -6.30         0.00
    326.5       10.00          322.46            0.00          7.93        -6.09         0.00
    317.2       10.00          323.94            0.00          8.08        -5.89         0.00
    307.9       10.00          325.41            0.00          8.23        -5.68         0.00
    298.6       10.00          326.89            0.00          8.38        -5.46         0.00
    289.3       10.00          328.37            0.00          8.51        -5.25         0.00
    280.0       10.00          329.84            0.00          8.65        -5.02         0.00
    270.7       10.00          331.32            0.00          8.77        -4.80         0.00
    261.4       10.00          332.79            0.00          8.89        -4.57         0.00
    252.1       10.00          334.27            0.00          9.01        -4.34         0.00
    242.8       10.00          335.75            0.00          9.12        -4.11         0.00
    233.5       10.00          337.22            0.00          9.22        -3.87         0.00
    224.2       10.00          338.70            0.00          9.32        -3.63         0.00
    214.9       10.00          340.17            0.00          9.41        -3.39         0.00
    205.6       10.00          341.65            0.00          9.49        -3.15         0.00
    196.3       10.00          343.13            0.00          9.57        -2.90         0.00
    187.0       10.00          344.60            0.00          9.64        -2.66         0.00
    177.7       10.00          346.08            0.00          9.71        -2.41         0.00
    168.4       10.00          347.56            0.00          9.77        -2.15         0.00
    159.1       10.00          349.03            0.00          9.82        -1.90         0.00
    149.8       10.00          350.51            0.00          9.86        -1.65         0.00
    140.5       10.00          351.98            0.00          9.90        -1.39         0.00
    131.2       10.00          353.46            0.00          9.93        -1.14         0.00
    121.9       10.00          354.94            0.00          9.96        -0.88         0.00
    112.6       10.00          356.41            0.00          9.98        -0.63         0.00
    103.3       10.00          357.89            0.00          9.99        -0.37         0.00
     94.0       10.00          359.37            0.00         10.00        -0.11         0.00
     84.7       10.00          360.84            0.00         10.00         0.15         0.00
     75.4       10.00          362.32            0.00          9.99         0.40         0.00
     66.1       10.00            3.79            0.00          9.98         0.66         0.00
     56.8       10.00            5.27            0.00          9.96         0.92         0.00
     47.5       10.00            6.75            0.00          9.93         1.17         0.00
     38.2       10.00            8.22            0.00          9.90         1.43         0.00
     28.9       10.00            9.70            0.00          9.86         1.68         0.00
     19.6       10.00           11.17            0.00          9.81         1.94         0.00
     10.3       10.00           12.65            0.00          9.76         2.19         0.00
      1.0       10.00           14.13            0.00          9.70         2.44         0.00


Harvested Random Seeds after Generation of the Random Numbers:

    377667225 K 1
            0 K 2


Hub-Height Simulated Turbulence Statistical Summary:

   Type of Wind        Min (m/s)   Mean (m/s)    Max (m/s)  Sigma (m/s)       TI (%)
   ----------------    ---------   ----------    ---------  -----------       ------
   Longitudinal (u)         8.08        10.00        12.07        0.651        6.509
   Lateral (v)             -1.45        -0.00         1.62        0.442        4.420
   Vertical (w)            -0.94        -0.00         1.05        0.278        2.776
   U component              7.81         9.71        11.82        0.644        6.635
   V component             -3.96        -2.41        -0.95        0.452        4.657
   W component             -0.94        -0.00         1.05        0.278        2.860
   Horizontal (U&V)         8.08        10.01        12.08        0.651        6.509
   Total                    8.08        10.01        12.11        0.651        6.503

                       Min Reynolds     Mean Reynolds    Max Reynolds    Correlation
   Product             Stress (m/s)^2   Stress (m/s)^2   Stress (m/s)^2  Coefficient
   ----------------    --------------   --------------   --------------  -----------
   u'w'                     -1.646            -0.004             0.934        -0.021
   u'v'                     -1.214             0.009             1.427         0.032
   v'w'                     -0.640             0.009             0.982         0.070


   Friction Velocity (Ustar)  =      0.062 m/s
   Maximum Instantaneous TKE  =      2.554 (m/s)^2
   Maximum Instantaneous CTKE =      0.952 (m/s)^2


Grid Point Variance Summary:

   Y-coord -892.80 -883.50 -874.20 -864.90 -855.60 -846.30 -837.00 -827.70 -818.40 -809.10 -799.80 -790.50 -781.20 -771.90 -762.60 -753.30 -744.00 -734.70 -725.40 -716.10 -706.80 -697.50 -688.20 -678.90 -669.60 -660.30 -651.00 -641.70 -632.40 -623.10 -613.80 -604.50 -595.20 -585.90 -576.60 -567.30 -558.00 -548.70 -539.40 -530.10 -520.80 -511.50 -502.20 -492.90 -483.60 -474.30 -465.00 -455.70 -446.40 -437.10 -427.80 -418.50 -409.20 -399.90 -390.60 -381.30 -372.00 -362.70 -353.40 -344.10 -334.80 -325.50 -316.20 -306.90 -297.60 -288.30 -279.00 -269.70 -260.40 -251.10 -241.80 -232.50 -223.20 -213.90 -204.60 -195.30 -186.00 -176.70 -167.40 -158.10 -148.80 -139.50 -130.20 -120.90 -111.60 -102.30  -93.00  -83.70  -74.40  -65.10  -55.80  -46.50  -37.20  -27.90  -18.60   -9.30    0.00    9.30   18.60   27.90   37.20   46.50   55.80   65.10   74.40   83.70   93.00  102.30  111.60  120.90  130.20  139.50  148.80  158.10  167.40  176.70  186.00  195.30  204.60  213.90  223.20  232.50  241.80  251.10  260.40  269.70  279.00  288.30  297.60  306.90  316.20  325.50  334.80  344.10  353.40  362.70  372.00  381.30  390.60  399.90  409.20  418.50  427.80  437.10  446.40  455.70  465.00  474.30  483.60  492.90  502.20  511.50  520.80  530.10  539.40  548.70  558.00  567.30  576.60  585.90  595.20  604.50  613.80  623.10  632.40  641.70  651.00  660.30  669.60  678.90  688.20  697.50  706.80  716.10  725.40  734.70  744.00  753.30  762.60  771.90  781.20  790.50  799.80  809.10  818.40  827.70  837.00  846.30  855.60  864.90  874.20  883.50  892.80

   Height   Standard deviation at grid points for the u component:
   354.40    0.639   0.600   0.590   0.564   0.569   0.528   0.551   0.532   0.509   0.504   0.499   0.463   0.505   0.523   0.574   0.566   0.577   0.591   0.619   0.620   0.641   0.609   0.620   0.585   0.542   0.548   0.528   0.517   0.544   0.569   0.615   0.608   0.592   0.595   0.592   0.635   0.629   0.601   0.625   0.618   0.617   0.581   0.606   0.598   0.539   0.526   0.542   0.547   0.561   0.600   0.588   0.556   0.548   0.541   0.542   0.528   0.514   0.514   0.470   0.481   0.500   0.536   0.530   0.555   0.558   0.565   0.590   0.547   0.558   0.627   0.631   0.594   0.585   0.573   0.545   0.603   0.634   0.602   0.580   0.585   0.573   0.587   0.595   0.601   0.580   0.590   0.571   0.562   0.547   0.549   0.559   0.612   0.602   0.673   0.610   0.589   0.632   0.579   0.600   0.613   0.629   0.636   0.581   0.581   0.602   0.588   0.654   0.628   0.610   0.635   0.621   0.615   0.593   0.590   0.612   0.614   0.683   0.708   0.679   0.576   0.593   0.545   0.526   0.526   0.535   0.538   0.560   0.544   0.517   0.540   0.566   0.564   0.567   0.551   0.519   0.489   0.513   0.579   0.590   0.581   0.603   0.577   0.569   0.575   0.531   0.489   0.487   0.474   0.467   0.507   0.560   0.572   0.574   0.565   0.597   0.618   0.618   0.592   0.558   0.608   0.599   0.569   0.518   0.514   0.541   0.564   0.544   0.535   0.502   0.534   0.540   0.524   0.505   0.522   0.527   0.485   0.499   0.535   0.518   0.501   0.469   0.506   0.509   0.574   0.590   0.592   0.546   0.545   0.587   0.566   0.565   0.539   0.522
   345.10    0.598   0.576   0.611   0.587   0.576   0.514   0.528   0.535   0.497   0.483   0.505   0.504   0.518   0.540   0.561   0.556   0.558   0.588   0.619   0.648   0.666   0.620   0.598   0.601   0.557   0.531   0.506   0.503   0.537   0.586   0.615   0.597   0.579   0.585   0.585   0.637   0.633   0.603   0.620   0.602   0.642   0.596   0.606   0.577   0.515   0.544   0.520   0.529   0.548   0.589   0.615   0.564   0.577   0.579   0.563   0.506   0.513   0.510   0.493   0.468   0.510   0.528   0.540   0.533   0.536   0.538   0.575   0.580   0.606   0.640   0.639   0.610   0.606   0.572   0.550   0.585   0.643   0.644   0.612   0.577   0.581   0.556   0.567   0.617   0.623   0.593   0.586   0.551   0.570   0.575   0.521   0.575   0.601   0.633   0.631   0.610   0.622   0.567   0.605   0.641   0.672   0.647   0.594   0.631   0.629   0.619   0.623   0.629   0.620   0.615   0.651   0.609   0.570   0.592   0.617   0.636   0.658   0.687   0.678   0.624   0.579   0.533   0.542   0.526   0.527   0.563   0.580   0.549   0.536   0.509   0.529   0.533   0.504   0.540   0.505   0.465   0.539   0.559   0.600   0.568   0.561   0.575   0.556   0.561   0.511   0.492   0.464   0.488   0.508   0.523   0.537   0.544   0.543   0.566   0.628   0.635   0.638   0.629   0.628   0.663   0.602   0.538   0.540   0.496   0.514   0.536   0.527   0.519   0.467   0.500   0.514   0.531   0.497   0.516   0.535   0.539   0.532   0.525   0.542   0.507   0.505   0.533   0.556   0.576   0.602   0.580   0.590   0.543   0.585   0.593   0.606   0.591   0.601
   335.80    0.563   0.570   0.601   0.563   0.545   0.483   0.458   0.523   0.485   0.437   0.439   0.446   0.505   0.527   0.535   0.573   0.593   0.589   0.617   0.578   0.591   0.592   0.574   0.552   0.553   0.526   0.485   0.486   0.516   0.550   0.580   0.601   0.569   0.554   0.573   0.586   0.614   0.619   0.570   0.621   0.605   0.618   0.608   0.620   0.579   0.569   0.554   0.528   0.565   0.614   0.594   0.611   0.595   0.588   0.533   0.538   0.538   0.511   0.498   0.540   0.505   0.489   0.492   0.530   0.541   0.543   0.588   0.584   0.628   0.651   0.674   0.614   0.588   0.550   0.589   0.616   0.593   0.620   0.601   0.590   0.629   0.598   0.638   0.617   0.615   0.591   0.575   0.549   0.546   0.548   0.533   0.540   0.557   0.569   0.593   0.587   0.582   0.557   0.604   0.621   0.616   0.649   0.629   0.602   0.626   0.615   0.620   0.636   0.634   0.627   0.636   0.599   0.533   0.557   0.588   0.598   0.633   0.607   0.639   0.574   0.570   0.561   0.522   0.536   0.541   0.541   0.539   0.545   0.539   0.521   0.520   0.488   0.493   0.504   0.495   0.502   0.540   0.557   0.569   0.581   0.529   0.518   0.517   0.538   0.536   0.505   0.523   0.522   0.566   0.526   0.550   0.578   0.554   0.616   0.649   0.652   0.662   0.675   0.711   0.655   0.599   0.613   0.548   0.495   0.506   0.501   0.504   0.498   0.482   0.498   0.526   0.505   0.519   0.549   0.547   0.590   0.551   0.525   0.535   0.529   0.530   0.541   0.574   0.558   0.589   0.597   0.542   0.548   0.579   0.576   0.563   0.584   0.580
   326.50    0.586   0.570   0.572   0.564   0.523   0.469   0.482   0.520   0.535   0.501   0.469   0.472   0.521   0.498   0.502   0.527   0.560   0.588   0.585   0.566   0.570   0.553   0.558   0.591   0.553   0.523   0.508   0.478   0.501   0.539   0.539   0.576   0.555   0.573   0.609   0.617   0.604   0.603   0.579   0.628   0.608   0.582   0.593   0.576   0.580   0.574   0.532   0.529   0.577   0.626   0.613   0.589   0.583   0.580   0.572   0.520   0.523   0.505   0.494   0.508   0.498   0.500   0.472   0.525   0.527   0.575   0.591   0.578   0.619   0.624   0.650   0.598   0.581   0.556   0.573   0.577   0.609   0.625   0.649   0.648   0.642   0.624   0.650   0.618   0.630   0.580   0.550   0.594   0.604   0.569   0.521   0.533   0.531   0.565   0.584   0.594   0.601   0.557   0.543   0.583   0.590   0.611   0.581   0.574   0.589   0.606   0.605   0.615   0.647   0.618   0.583   0.574   0.534   0.596   0.586   0.638   0.636   0.624   0.600   0.586   0.557   0.578   0.527   0.515   0.524   0.530   0.537   0.508   0.517   0.518   0.506   0.519   0.484   0.494   0.500   0.542   0.535   0.539   0.555   0.548   0.510   0.515   0.507   0.508   0.529   0.509   0.533   0.549   0.503   0.549   0.545   0.605   0.578   0.592   0.659   0.597   0.594   0.569   0.640   0.647   0.609   0.599   0.533   0.502   0.461   0.484   0.471   0.463   0.460   0.504   0.523   0.532   0.555   0.531   0.568   0.568   0.599   0.538   0.521   0.553   0.559   0.561   0.589   0.575   0.589   0.574   0.542   0.534   0.615   0.575   0.586   0.618   0.622
   317.20    0.558   0.542   0.549   0.534   0.498   0.471   0.481   0.478   0.489   0.523   0.456   0.467   0.495   0.471   0.502   0.499   0.581   0.607   0.628   0.600   0.590   0.584   0.599   0.576   0.568   0.548   0.515   0.497   0.510   0.533   0.553   0.622   0.583   0.572   0.579   0.596   0.575   0.585   0.595   0.589   0.609   0.585   0.595   0.614   0.589   0.555   0.521   0.531   0.552   0.588   0.603   0.629   0.597   0.561   0.556   0.534   0.515   0.481   0.486   0.493   0.501   0.502   0.489   0.523   0.527   0.534   0.562   0.614   0.584   0.583   0.581   0.585   0.562   0.617   0.589   0.603   0.601   0.626   0.670   0.721   0.724   0.695   0.669   0.634   0.628   0.626   0.583   0.582   0.598   0.594   0.474   0.486   0.514   0.547   0.594   0.579   0.574   0.538   0.588   0.591   0.629   0.652   0.605   0.591   0.542   0.576   0.567   0.634   0.624   0.584   0.544   0.511   0.548   0.549   0.608   0.603   0.628   0.610   0.575   0.574   0.596   0.570   0.549   0.523   0.513   0.520   0.546   0.523   0.504   0.481   0.495   0.536   0.477   0.506   0.540   0.539   0.545   0.516   0.525   0.528   0.530   0.487   0.474   0.468   0.490   0.528   0.539   0.523   0.523   0.546   0.553   0.569   0.583   0.578   0.594   0.588   0.556   0.592   0.614   0.612   0.599   0.566   0.536   0.497   0.521   0.512   0.467   0.453   0.481   0.522   0.539   0.513   0.542   0.535   0.553   0.563   0.549   0.545   0.535   0.611   0.565   0.570   0.560   0.585   0.557   0.503   0.525   0.540   0.563   0.610   0.591   0.618   0.607
   307.90    0.564   0.561   0.526   0.536   0.475   0.460   0.509   0.504   0.545   0.504   0.504   0.502   0.496   0.495   0.483   0.528   0.561   0.608   0.614   0.573   0.552   0.545   0.546   0.550   0.557   0.587   0.554   0.505   0.507   0.530   0.567   0.577   0.579   0.534   0.565   0.553   0.592   0.586   0.600   0.552   0.616   0.631   0.591   0.606   0.595   0.566   0.553   0.531   0.552   0.581   0.598   0.619   0.563   0.522   0.514   0.512   0.504   0.518   0.497   0.534   0.521   0.532   0.537   0.532   0.497   0.516   0.551   0.607   0.591   0.600   0.616   0.575   0.576   0.569   0.582   0.617   0.609   0.653   0.661   0.699   0.727   0.717   0.646   0.626   0.587   0.566   0.518   0.534   0.566   0.542   0.487   0.533   0.514   0.523   0.526   0.533   0.553   0.588   0.606   0.626   0.635   0.589   0.576   0.560   0.570   0.559   0.639   0.583   0.580   0.583   0.527   0.524   0.511   0.550   0.632   0.612   0.632   0.595   0.556   0.546   0.551   0.555   0.562   0.530   0.497   0.493   0.547   0.557   0.495   0.551   0.504   0.464   0.487   0.523   0.527   0.506   0.521   0.513   0.516   0.506   0.525   0.518   0.458   0.478   0.503   0.510   0.508   0.507   0.555   0.554   0.548   0.538   0.550   0.520   0.566   0.587   0.571   0.561   0.566   0.566   0.582   0.557   0.591   0.554   0.548   0.546   0.528   0.525   0.537   0.529   0.583   0.588   0.581   0.596   0.550   0.590   0.587   0.576   0.594   0.588   0.621   0.595   0.589   0.609   0.571   0.535   0.520   0.536   0.585   0.596   0.629   0.615   0.605
   298.60    0.591   0.576   0.560   0.561   0.523   0.517   0.476   0.528   0.515   0.499   0.532   0.546   0.511   0.480   0.522   0.536   0.567   0.585   0.563   0.560   0.561   0.552   0.566   0.600   0.566   0.583   0.558   0.532   0.521   0.511   0.516   0.549   0.545   0.523   0.521   0.525   0.576   0.555   0.563   0.552   0.619   0.628   0.618   0.654   0.647   0.619   0.606   0.554   0.540   0.537   0.544   0.567   0.551   0.504   0.507   0.517   0.529   0.499   0.524   0.556   0.513   0.498   0.503   0.504   0.477   0.508   0.555   0.556   0.586   0.620   0.616   0.633   0.634   0.605   0.581   0.609   0.612   0.594   0.679   0.689   0.721   0.730   0.659   0.653   0.643   0.587   0.559   0.530   0.546   0.540   0.549   0.540   0.517   0.497   0.529   0.534   0.567   0.594   0.645   0.624   0.585   0.561   0.560   0.592   0.578   0.562   0.617   0.604   0.604   0.564   0.561   0.529   0.521   0.556   0.582   0.609   0.567   0.576   0.527   0.585   0.562   0.524   0.522   0.537   0.520   0.535   0.543   0.530   0.515   0.500   0.495   0.499   0.489   0.492   0.492   0.505   0.524   0.510   0.524   0.553   0.520   0.520   0.513   0.479   0.490   0.495   0.483   0.513   0.537   0.533   0.516   0.508   0.502   0.539   0.580   0.548   0.572   0.518   0.524   0.536   0.582   0.552   0.562   0.587   0.565   0.565   0.551   0.574   0.576   0.606   0.639   0.623   0.602   0.590   0.593   0.549   0.582   0.600   0.581   0.623   0.603   0.610   0.633   0.609   0.587   0.577   0.579   0.591   0.607   0.649   0.648   0.614   0.628
   289.30    0.554   0.558   0.525   0.505   0.489   0.511   0.477   0.506   0.523   0.518   0.518   0.552   0.534   0.492   0.522   0.565   0.580   0.586   0.551   0.554   0.560   0.541   0.575   0.565   0.542   0.547   0.575   0.553   0.524   0.501   0.505   0.525   0.510   0.487   0.488   0.518   0.543   0.549   0.569   0.608   0.581   0.576   0.623   0.640   0.626   0.618   0.577   0.558   0.541   0.506   0.543   0.565   0.528   0.488   0.441   0.467   0.460   0.492   0.501   0.503   0.518   0.506   0.484   0.484   0.512   0.508   0.514   0.557   0.548   0.610   0.586   0.637   0.621   0.610   0.612   0.599   0.592   0.587   0.653   0.715   0.706   0.714   0.703   0.662   0.621   0.621   0.571   0.556   0.574   0.575   0.557   0.572   0.546   0.514   0.488   0.533   0.557   0.600   0.646   0.627   0.603   0.561   0.543   0.533   0.556   0.580   0.579   0.616   0.632   0.562   0.584   0.594   0.541   0.550   0.572   0.596   0.585   0.558   0.572   0.590   0.577   0.508   0.518   0.527   0.547   0.561   0.536   0.506   0.526   0.483   0.490   0.498   0.459   0.439   0.451   0.489   0.519   0.518   0.527   0.513   0.500   0.493   0.492   0.475   0.495   0.487   0.497   0.498   0.494   0.499   0.492   0.492   0.535   0.537   0.594   0.575   0.568   0.553   0.541   0.521   0.527   0.518   0.554   0.577   0.575   0.578   0.585   0.565   0.612   0.663   0.669   0.644   0.643   0.616   0.584   0.620   0.608   0.579   0.639   0.642   0.625   0.594   0.594   0.629   0.625   0.633   0.604   0.605   0.622   0.668   0.669   0.611   0.609
   280.00    0.507   0.559   0.533   0.529   0.516   0.503   0.524   0.490   0.504   0.525   0.512   0.534   0.513   0.547   0.552   0.575   0.581   0.558   0.544   0.587   0.578   0.542   0.556   0.558   0.558   0.533   0.550   0.557   0.523   0.481   0.491   0.517   0.559   0.505   0.489   0.521   0.507   0.547   0.566   0.601   0.623   0.607   0.595   0.627   0.589   0.616   0.603   0.580   0.563   0.510   0.532   0.514   0.481   0.448   0.440   0.452   0.470   0.489   0.516   0.518   0.499   0.495   0.460   0.479   0.491   0.500   0.520   0.521   0.557   0.576   0.578   0.598   0.611   0.588   0.613   0.598   0.633   0.586   0.608   0.681   0.721   0.722   0.668   0.633   0.600   0.597   0.583   0.570   0.585   0.588   0.563   0.583   0.589   0.525   0.502   0.511   0.555   0.582   0.624   0.646   0.572   0.530   0.525   0.562   0.551   0.550   0.561   0.561   0.600   0.563   0.585   0.557   0.545   0.528   0.560   0.584   0.581   0.563   0.609   0.607   0.602   0.531   0.523   0.501   0.541   0.525   0.542   0.506   0.504   0.520   0.527   0.481   0.454   0.447   0.448   0.458   0.527   0.529   0.512   0.516   0.542   0.539   0.511   0.526   0.505   0.519   0.519   0.519   0.511   0.476   0.515   0.514   0.533   0.554   0.588   0.558   0.580   0.569   0.540   0.551   0.529   0.548   0.547   0.550   0.559   0.540   0.529   0.566   0.615   0.657   0.663   0.619   0.651   0.658   0.623   0.641   0.607   0.616   0.646   0.608   0.676   0.631   0.619   0.618   0.601   0.606   0.612   0.630   0.614   0.650   0.613   0.582   0.634
   270.70    0.521   0.561   0.527   0.549   0.570   0.542   0.546   0.528   0.518   0.548   0.505   0.543   0.529   0.522   0.556   0.533   0.598   0.575   0.597   0.567   0.583   0.549   0.532   0.577   0.531   0.537   0.539   0.508   0.521   0.498   0.465   0.516   0.544   0.544   0.530   0.531   0.563   0.560   0.533   0.574   0.619   0.610   0.599   0.574   0.605   0.608   0.577   0.546   0.591   0.538   0.496   0.485   0.525   0.488   0.482   0.461   0.479   0.489   0.529   0.502   0.480   0.474   0.481   0.476   0.485   0.509   0.533   0.532   0.542   0.532   0.557   0.531   0.563   0.591   0.631   0.626   0.643   0.612   0.634   0.644   0.687   0.670   0.645   0.667   0.644   0.628   0.584   0.575   0.567   0.587   0.602   0.602   0.565   0.521   0.517   0.563   0.559   0.568   0.627   0.606   0.555   0.576   0.542   0.543   0.561   0.560   0.553   0.531   0.566   0.561   0.589   0.561   0.552   0.528   0.570   0.596   0.581   0.581   0.584   0.562   0.574   0.500   0.526   0.508   0.536   0.533   0.509   0.502   0.484   0.492   0.478   0.485   0.485   0.459   0.473   0.522   0.531   0.492   0.501   0.501   0.545   0.521   0.531   0.538   0.496   0.523   0.520   0.535   0.503   0.521   0.498   0.533   0.511   0.536   0.574   0.612   0.571   0.545   0.532   0.530   0.539   0.535   0.541   0.551   0.531   0.529   0.516   0.556   0.536   0.612   0.619   0.603   0.636   0.625   0.606   0.641   0.666   0.650   0.679   0.662   0.639   0.597   0.606   0.578   0.544   0.562   0.589   0.599   0.592   0.613   0.617   0.621   0.617
   261.40    0.558   0.581   0.594   0.576   0.593   0.586   0.542   0.540   0.533   0.527   0.527   0.519   0.534   0.526   0.504   0.551   0.566   0.598   0.606   0.581   0.575   0.541   0.526   0.535   0.533   0.495   0.517   0.535   0.499   0.505   0.503   0.538   0.544   0.526   0.529   0.543   0.562   0.584   0.570   0.565   0.588   0.609   0.604   0.630   0.622   0.586   0.570   0.563   0.554   0.550   0.525   0.513   0.505   0.478   0.478   0.447   0.492   0.489   0.528   0.513   0.486   0.485   0.497   0.519   0.486   0.486   0.498   0.498   0.502   0.499   0.531   0.523   0.589   0.594   0.633   0.603   0.611   0.638   0.643   0.636   0.686   0.648   0.625   0.629   0.637   0.599   0.571   0.592   0.575   0.618   0.614   0.624   0.533   0.559   0.559   0.546   0.587   0.598   0.634   0.612   0.586   0.594   0.576   0.546   0.575   0.589   0.586   0.564   0.572   0.562   0.584   0.573   0.534   0.546   0.565   0.522   0.557   0.560   0.568   0.583   0.541   0.527   0.544   0.548   0.552   0.500   0.497   0.476   0.462   0.453   0.474   0.461   0.461   0.450   0.490   0.520   0.522   0.501   0.489   0.525   0.524   0.529   0.540   0.540   0.548   0.547   0.499   0.496   0.536   0.508   0.489   0.526   0.523   0.577   0.618   0.582   0.573   0.533   0.516   0.509   0.528   0.545   0.557   0.550   0.552   0.562   0.530   0.559   0.570   0.532   0.626   0.650   0.625   0.600   0.620   0.642   0.687   0.672   0.684   0.654   0.663   0.617   0.595   0.554   0.571   0.576   0.574   0.546   0.605   0.645   0.605   0.614   0.663
   252.10    0.555   0.570   0.594   0.562   0.578   0.581   0.574   0.540   0.549   0.548   0.489   0.487   0.517   0.495   0.509   0.533   0.525   0.549   0.584   0.596   0.580   0.530   0.540   0.547   0.503   0.505   0.500   0.480   0.487   0.498   0.521   0.525   0.542   0.565   0.546   0.530   0.544   0.543   0.569   0.599   0.567   0.595   0.557   0.632   0.621   0.626   0.594   0.586   0.586   0.552   0.545   0.559   0.517   0.497   0.498   0.479   0.502   0.491   0.483   0.508   0.524   0.486   0.492   0.527   0.492   0.502   0.502   0.495   0.521   0.534   0.513   0.550   0.622   0.624   0.608   0.618   0.633   0.658   0.631   0.662   0.647   0.650   0.640   0.685   0.628   0.594   0.601   0.601   0.600   0.623   0.629   0.602   0.589   0.579   0.543   0.559   0.594   0.573   0.638   0.616   0.615   0.607   0.572   0.519   0.562   0.574   0.583   0.579   0.602   0.577   0.579   0.616   0.558   0.563   0.526   0.530   0.518   0.555   0.530   0.548   0.502   0.487   0.506   0.534   0.543   0.514   0.479   0.465   0.459   0.491   0.544   0.465   0.439   0.448   0.463   0.489   0.506   0.530   0.516   0.530   0.572   0.538   0.530   0.544   0.519   0.512   0.506   0.508   0.523   0.545   0.511   0.517   0.575   0.601   0.606   0.593   0.593   0.532   0.560   0.533   0.513   0.552   0.542   0.571   0.559   0.499   0.528   0.562   0.527   0.525   0.571   0.610   0.593   0.601   0.612   0.649   0.641   0.681   0.697   0.651   0.646   0.625   0.592   0.546   0.531   0.574   0.543   0.502   0.592   0.637   0.640   0.660   0.665
   242.80    0.546   0.516   0.549   0.551   0.602   0.586   0.588   0.579   0.555   0.538   0.522   0.468   0.464   0.449   0.482   0.482   0.517   0.571   0.554   0.544   0.565   0.582   0.562   0.534   0.540   0.511   0.508   0.476   0.491   0.504   0.506   0.540   0.552   0.572   0.567   0.564   0.501   0.573   0.606   0.573   0.582   0.589   0.545   0.613   0.624   0.601   0.610   0.600   0.576   0.601   0.524   0.548   0.531   0.531   0.487   0.500   0.474   0.490   0.457   0.478   0.470   0.477   0.511   0.511   0.503   0.513   0.491   0.486   0.520   0.520   0.541   0.600   0.629   0.604   0.577   0.594   0.625   0.617   0.599   0.628   0.605   0.610   0.654   0.671   0.652   0.612   0.624   0.603   0.622   0.596   0.641   0.636   0.627   0.610   0.592   0.578   0.628   0.665   0.654   0.651   0.645   0.631   0.607   0.590   0.603   0.590   0.562   0.608   0.631   0.631   0.602   0.604   0.587   0.613   0.559   0.569   0.575   0.576   0.548   0.522   0.477   0.462   0.509   0.475   0.531   0.513   0.506   0.501   0.506   0.502   0.529   0.482   0.453   0.446   0.450   0.474   0.516   0.558   0.572   0.578   0.555   0.538   0.531   0.553   0.521   0.520   0.482   0.494   0.512   0.498   0.515   0.520   0.525   0.568   0.590   0.573   0.551   0.514   0.518   0.570   0.570   0.563   0.553   0.589   0.568   0.551   0.512   0.505   0.502   0.512   0.550   0.618   0.629   0.651   0.617   0.613   0.640   0.663   0.623   0.631   0.611   0.602   0.556   0.553   0.527   0.558   0.529   0.569   0.635   0.652   0.648   0.664   0.652
   233.50    0.536   0.534   0.522   0.567   0.553   0.582   0.595   0.609   0.564   0.558   0.516   0.476   0.474   0.450   0.459   0.507   0.537   0.544   0.553   0.553   0.572   0.548   0.560   0.570   0.528   0.500   0.515   0.504   0.500   0.508   0.527   0.548   0.574   0.553   0.536   0.536   0.579   0.581   0.573   0.580   0.583   0.583   0.562   0.590   0.582   0.598   0.620   0.589   0.586   0.592   0.542   0.560   0.538   0.523   0.500   0.474   0.470   0.478   0.488   0.465   0.439   0.480   0.497   0.498   0.523   0.491   0.501   0.520   0.526   0.518   0.553   0.569   0.577   0.548   0.544   0.563   0.597   0.629   0.619   0.622   0.622   0.624   0.657   0.676   0.675   0.618   0.598   0.592   0.636   0.634   0.659   0.627   0.650   0.641   0.595   0.566   0.568   0.610   0.640   0.672   0.699   0.657   0.635   0.610   0.557   0.590   0.635   0.666   0.677   0.648   0.632   0.621   0.629   0.613   0.577   0.562   0.565   0.548   0.532   0.510   0.469   0.489   0.502   0.521   0.530   0.518   0.515   0.512   0.506   0.523   0.504   0.503   0.450   0.444   0.447   0.457   0.520   0.543   0.551   0.543   0.560   0.566   0.522   0.530   0.511   0.535   0.512   0.487   0.497   0.533   0.548   0.540   0.515   0.520   0.549   0.528   0.517   0.498   0.564   0.543   0.561   0.605   0.574   0.565   0.589   0.549   0.516   0.529   0.529   0.508   0.567   0.627   0.584   0.622   0.593   0.595   0.616   0.634   0.573   0.576   0.568   0.559   0.570   0.531   0.558   0.537   0.564   0.611   0.668   0.694   0.721   0.692   0.654
   224.20    0.543   0.530   0.549   0.531   0.543   0.572   0.586   0.589   0.551   0.526   0.483   0.482   0.450   0.497   0.468   0.502   0.578   0.580   0.586   0.549   0.524   0.528   0.551   0.587   0.557   0.561   0.518   0.527   0.491   0.510   0.551   0.549   0.543   0.553   0.521   0.559   0.571   0.605   0.637   0.621   0.603   0.614   0.550   0.566   0.602   0.593   0.615   0.569   0.559   0.550   0.501   0.536   0.538   0.498   0.467   0.484   0.495   0.481   0.437   0.443   0.454   0.478   0.451   0.466   0.505   0.522   0.525   0.517   0.507   0.550   0.520   0.546   0.544   0.520   0.537   0.594   0.577   0.617   0.593   0.635   0.615   0.649   0.639   0.666   0.680   0.662   0.644   0.621   0.618   0.635   0.640   0.632   0.663   0.656   0.612   0.555   0.562   0.575   0.612   0.643   0.695   0.659   0.683   0.621   0.604   0.659   0.634   0.657   0.682   0.672   0.616   0.625   0.614   0.596   0.619   0.582   0.543   0.526   0.542   0.490   0.487   0.486   0.510   0.534   0.532   0.534   0.550   0.540   0.507   0.537   0.495   0.490   0.442   0.441   0.465   0.510   0.545   0.560   0.540   0.508   0.515   0.543   0.520   0.548   0.529   0.519   0.511   0.496   0.509   0.517   0.570   0.540   0.531   0.507   0.496   0.527   0.493   0.498   0.553   0.570   0.642   0.619   0.605   0.550   0.567   0.538   0.536   0.531   0.533   0.545   0.548   0.570   0.593   0.559   0.606   0.568   0.584   0.588   0.558   0.556   0.550   0.576   0.567   0.559   0.559   0.587   0.646   0.671   0.653   0.700   0.726   0.694   0.667
   214.90    0.554   0.511   0.516   0.526   0.530   0.540   0.575   0.573   0.552   0.536   0.490   0.481   0.456   0.501   0.515   0.522   0.564   0.581   0.604   0.593   0.557   0.525   0.565   0.529   0.577   0.522   0.544   0.543   0.507   0.510   0.539   0.553   0.522   0.543   0.568   0.585   0.583   0.576   0.622   0.639   0.608   0.563   0.530   0.550   0.579   0.586   0.564   0.559   0.527   0.525   0.562   0.524   0.509   0.475   0.475   0.492   0.499   0.473   0.464   0.454   0.465   0.462   0.456   0.443   0.477   0.502   0.512   0.525   0.543   0.519   0.502   0.574   0.523   0.519   0.512   0.543   0.616   0.599   0.579   0.614   0.617   0.624   0.663   0.677   0.657   0.646   0.636   0.619   0.608   0.617   0.649   0.652   0.649   0.632   0.584   0.624   0.582   0.598   0.615   0.658   0.663   0.652   0.633   0.640   0.655   0.661   0.654   0.652   0.627   0.608   0.639   0.605   0.611   0.654   0.636   0.574   0.551   0.535   0.515   0.507   0.484   0.469   0.510   0.510   0.527   0.537   0.594   0.529   0.557   0.538   0.507   0.492   0.504   0.505   0.518   0.524   0.512   0.523   0.532   0.518   0.463   0.480   0.518   0.528   0.549   0.546   0.520   0.476   0.478   0.519   0.528   0.550   0.526   0.517   0.498   0.500   0.512   0.494   0.525   0.573   0.599   0.604   0.573   0.578   0.563   0.566   0.572   0.565   0.496   0.528   0.559   0.594   0.568   0.577   0.566   0.565   0.586   0.578   0.548   0.541   0.586   0.606   0.638   0.569   0.571   0.586   0.636   0.627   0.610   0.662   0.681   0.660   0.629
   205.60    0.536   0.532   0.540   0.558   0.574   0.520   0.519   0.528   0.517   0.462   0.493   0.490   0.488   0.509   0.529   0.546   0.565   0.572   0.545   0.567   0.595   0.564   0.561   0.565   0.553   0.523   0.520   0.526   0.560   0.540   0.590   0.540   0.521   0.529   0.568   0.571   0.562   0.602   0.607   0.625   0.629   0.580   0.553   0.562   0.588   0.600   0.574   0.526   0.563   0.499   0.529   0.513   0.502   0.492   0.467   0.480   0.502   0.495   0.492   0.460   0.418   0.450   0.464   0.460   0.445   0.476   0.514   0.547   0.541   0.512   0.541   0.532   0.534   0.514   0.534   0.541   0.575   0.550   0.555   0.571   0.592   0.647   0.652   0.641   0.669   0.690   0.656   0.658   0.690   0.669   0.655   0.637   0.641   0.627   0.593   0.624   0.610   0.615   0.595   0.630   0.656   0.649   0.673   0.667   0.654   0.640   0.627   0.651   0.620   0.622   0.612   0.585   0.619   0.636   0.605   0.569   0.567   0.532   0.548   0.502   0.497   0.484   0.492   0.546   0.522   0.571   0.611   0.584   0.562   0.520   0.523   0.513   0.471   0.482   0.476   0.471   0.514   0.513   0.516   0.496   0.469   0.505   0.496   0.492   0.518   0.513   0.523   0.525   0.482   0.489   0.489   0.476   0.480   0.497   0.482   0.505   0.515   0.496   0.517   0.564   0.573   0.587   0.614   0.553   0.565   0.566   0.588   0.555   0.530   0.522   0.543   0.558   0.528   0.523   0.571   0.599   0.555   0.561   0.556   0.511   0.532   0.575   0.610   0.605   0.594   0.586   0.618   0.636   0.616   0.656   0.690   0.638   0.632
   196.30    0.511   0.527   0.536   0.542   0.556   0.536   0.494   0.535   0.527   0.538   0.485   0.497   0.468   0.504   0.541   0.551   0.590   0.550   0.569   0.587   0.565   0.544   0.545   0.549   0.564   0.546   0.533   0.572   0.564   0.578   0.597   0.571   0.535   0.542   0.525   0.547   0.539   0.545   0.556   0.596   0.652   0.589   0.577   0.538   0.566   0.580   0.568   0.589   0.543   0.530   0.537   0.526   0.532   0.515   0.499   0.495   0.496   0.483   0.466   0.432   0.445   0.478   0.463   0.466   0.508   0.510   0.512   0.526   0.504   0.494   0.520   0.523   0.554   0.547   0.583   0.546   0.525   0.535   0.527   0.566   0.584   0.621   0.642   0.629   0.631   0.649   0.626   0.643   0.666   0.712   0.650   0.614   0.676   0.643   0.622   0.602   0.626   0.610   0.598   0.606   0.634   0.632   0.646   0.625   0.648   0.642   0.607   0.632   0.616   0.590   0.596   0.568   0.631   0.618   0.621   0.559   0.571   0.538   0.564   0.515   0.504   0.493   0.495   0.498   0.544   0.577   0.586   0.601   0.609   0.584   0.542   0.543   0.504   0.489   0.497   0.477   0.480   0.518   0.514   0.526   0.542   0.471   0.502   0.477   0.502   0.549   0.501   0.490   0.470   0.503   0.512   0.479   0.467   0.474   0.483   0.496   0.468   0.498   0.510   0.540   0.556   0.532   0.556   0.560   0.583   0.573   0.571   0.562   0.558   0.542   0.546   0.573   0.506   0.499   0.523   0.549   0.540   0.548   0.496   0.513   0.542   0.537   0.585   0.600   0.581   0.571   0.595   0.619   0.657   0.643   0.653   0.603   0.614
   187.00    0.523   0.493   0.501   0.513   0.542   0.525   0.519   0.510   0.530   0.524   0.508   0.477   0.485   0.484   0.524   0.547   0.547   0.549   0.553   0.560   0.579   0.577   0.553   0.531   0.519   0.536   0.555   0.594   0.609   0.606   0.582   0.560   0.560   0.545   0.578   0.528   0.541   0.580   0.598   0.613   0.644   0.639   0.632   0.563   0.572   0.566   0.592   0.575   0.536   0.543   0.547   0.545   0.516   0.547   0.508   0.483   0.491   0.474   0.474   0.437   0.458   0.496   0.505   0.502   0.481   0.481   0.470   0.452   0.462   0.475   0.516   0.537   0.545   0.565   0.589   0.589   0.573   0.528   0.549   0.574   0.564   0.606   0.576   0.573   0.589   0.596   0.556   0.610   0.647   0.676   0.689   0.648   0.669   0.659   0.679   0.661   0.625   0.645   0.599   0.616   0.642   0.664   0.653   0.650   0.640   0.633   0.641   0.612   0.571   0.564   0.560   0.595   0.608   0.637   0.585   0.582   0.595   0.543   0.537   0.521   0.523   0.471   0.518   0.546   0.564   0.564   0.609   0.607   0.621   0.563   0.565   0.547   0.525   0.559   0.515   0.477   0.508   0.518   0.519   0.490   0.501   0.506   0.499   0.490   0.508   0.529   0.494   0.489   0.489   0.543   0.514   0.497   0.477   0.483   0.478   0.498   0.483   0.492   0.511   0.523   0.536   0.556   0.534   0.543   0.573   0.580   0.602   0.616   0.551   0.542   0.544   0.543   0.584   0.548   0.554   0.558   0.519   0.529   0.520   0.504   0.525   0.550   0.564   0.586   0.612   0.575   0.636   0.653   0.630   0.584   0.602   0.575   0.583
   177.70    0.529   0.538   0.519   0.527   0.538   0.557   0.514   0.506   0.514   0.520   0.501   0.495   0.476   0.500   0.511   0.529   0.533   0.554   0.516   0.572   0.604   0.565   0.590   0.562   0.537   0.502   0.541   0.560   0.595   0.605   0.563   0.553   0.511   0.503   0.544   0.534   0.522   0.556   0.565   0.600   0.630   0.642   0.629   0.562   0.567   0.567   0.565   0.566   0.504   0.522   0.529   0.490   0.518   0.578   0.544   0.522   0.491   0.470   0.459   0.452   0.500   0.503   0.511   0.516   0.499   0.504   0.488   0.497   0.476   0.485   0.536   0.538   0.507   0.525   0.532   0.595   0.610   0.594   0.592   0.574   0.573   0.601   0.573   0.565   0.613   0.574   0.515   0.596   0.622   0.641   0.678   0.664   0.676   0.716   0.677   0.663   0.651   0.614   0.615   0.587   0.643   0.644   0.643   0.616   0.629   0.621   0.645   0.601   0.578   0.559   0.554   0.601   0.611   0.621   0.570   0.547   0.562   0.544   0.527   0.526   0.526   0.544   0.516   0.563   0.556   0.592   0.604   0.620   0.584   0.566   0.576   0.575   0.555   0.558   0.537   0.505   0.532   0.560   0.540   0.507   0.502   0.494   0.515   0.494   0.509   0.536   0.505   0.474   0.526   0.545   0.544   0.477   0.472   0.496   0.472   0.468   0.505   0.507   0.510   0.518   0.520   0.538   0.510   0.559   0.604   0.579   0.611   0.609   0.575   0.579   0.538   0.552   0.570   0.581   0.584   0.592   0.587   0.549   0.514   0.508   0.517   0.546   0.557   0.551   0.596   0.622   0.605   0.636   0.629   0.582   0.580   0.598   0.582
   168.40    0.575   0.561   0.534   0.541   0.556   0.533   0.496   0.513   0.548   0.526   0.486   0.513   0.545   0.540   0.560   0.549   0.565   0.563   0.576   0.578   0.579   0.575   0.585   0.595   0.544   0.522   0.545   0.601   0.602   0.591   0.567   0.517   0.506   0.517   0.523   0.508   0.493   0.551   0.579   0.570   0.602   0.624   0.600   0.587   0.555   0.586   0.570   0.563   0.531   0.515   0.509   0.484   0.482   0.511   0.524   0.510   0.504   0.454   0.458   0.452   0.476   0.480   0.493   0.488   0.476   0.536   0.524   0.505   0.506   0.501   0.542   0.569   0.534   0.536   0.553   0.594   0.622   0.615   0.599   0.584   0.612   0.584   0.584   0.588   0.620   0.557   0.540   0.584   0.585   0.636   0.705   0.652   0.651   0.680   0.679   0.666   0.627   0.570   0.600   0.620   0.655   0.673   0.649   0.664   0.670   0.627   0.637   0.609   0.581   0.566   0.577   0.575   0.562   0.570   0.565   0.530   0.547   0.544   0.535   0.549   0.534   0.569   0.539   0.545   0.541   0.593   0.614   0.612   0.610   0.568   0.549   0.550   0.562   0.535   0.544   0.524   0.556   0.536   0.531   0.497   0.515   0.490   0.499   0.502   0.504   0.517   0.511   0.507   0.527   0.550   0.521   0.493   0.453   0.458   0.443   0.503   0.521   0.560   0.525   0.513   0.532   0.525   0.513   0.537   0.565   0.592   0.564   0.596   0.577   0.549   0.552   0.559   0.582   0.610   0.604   0.647   0.598   0.542   0.514   0.489   0.513   0.575   0.603   0.571   0.590   0.601   0.584   0.638   0.626   0.535   0.545   0.584   0.569
   159.10    0.560   0.568   0.528   0.541   0.528   0.521   0.508   0.501   0.538   0.547   0.534   0.538   0.567   0.590   0.551   0.572   0.574   0.607   0.611   0.612   0.601   0.609   0.556   0.583   0.537   0.531   0.540   0.571   0.601   0.581   0.546   0.536   0.513   0.514   0.487   0.504   0.522   0.546   0.582   0.613   0.629   0.618   0.584   0.573   0.595   0.592   0.540   0.550   0.566   0.538   0.553   0.508   0.496   0.453   0.508   0.504   0.479   0.455   0.493   0.512   0.524   0.528   0.526   0.544   0.567   0.576   0.563   0.536   0.544   0.529   0.532   0.557   0.569   0.535   0.575   0.580   0.609   0.645   0.642   0.587   0.574   0.602   0.595   0.593   0.617   0.600   0.534   0.560   0.628   0.645   0.679   0.670   0.666   0.685   0.667   0.700   0.660   0.616   0.562   0.586   0.639   0.661   0.665   0.708   0.693   0.657   0.604   0.598   0.584   0.541   0.560   0.543   0.517   0.536   0.532   0.533   0.535   0.535   0.524   0.528   0.508   0.510   0.538   0.515   0.492   0.563   0.601   0.577   0.612   0.569   0.530   0.511   0.542   0.542   0.538   0.512   0.548   0.519   0.527   0.518   0.511   0.488   0.485   0.508   0.499   0.494   0.546   0.532   0.530   0.519   0.553   0.520   0.474   0.441   0.446   0.461   0.514   0.558   0.556   0.521   0.509   0.521   0.544   0.552   0.555   0.541   0.539   0.564   0.590   0.543   0.542   0.612   0.601   0.596   0.631   0.659   0.619   0.559   0.518   0.542   0.537   0.583   0.588   0.605   0.603   0.601   0.609   0.614   0.552   0.558   0.553   0.553   0.562
   149.80    0.585   0.548   0.534   0.512   0.532   0.502   0.469   0.513   0.526   0.566   0.577   0.568   0.565   0.606   0.596   0.581   0.624   0.611   0.605   0.610   0.590   0.602   0.583   0.602   0.546   0.535   0.568   0.570   0.582   0.538   0.536   0.519   0.493   0.515   0.489   0.519   0.475   0.558   0.565   0.585   0.562   0.548   0.540   0.537   0.547   0.571   0.577   0.563   0.585   0.503   0.549   0.571   0.516   0.479   0.474   0.496   0.508   0.488   0.509   0.572   0.523   0.543   0.559   0.571   0.582   0.584   0.591   0.565   0.512   0.542   0.574   0.600   0.568   0.548   0.580   0.591   0.590   0.624   0.618   0.587   0.577   0.629   0.641   0.620   0.620   0.625   0.553   0.558   0.629   0.657   0.668   0.671   0.686   0.714   0.743   0.737   0.694   0.644   0.613   0.648   0.644   0.659   0.666   0.671   0.658   0.654   0.627   0.568   0.555   0.540   0.522   0.504   0.477   0.485   0.525   0.526   0.533   0.543   0.540   0.555   0.503   0.489   0.476   0.476   0.479   0.535   0.558   0.584   0.570   0.542   0.492   0.472   0.510   0.512   0.529   0.545   0.538   0.541   0.536   0.527   0.539   0.524   0.500   0.516   0.530   0.521   0.574   0.547   0.545   0.547   0.543   0.513   0.467   0.483   0.491   0.537   0.516   0.527   0.530   0.521   0.543   0.531   0.513   0.548   0.550   0.537   0.542   0.530   0.530   0.498   0.521   0.572   0.592   0.629   0.617   0.610   0.620   0.586   0.544   0.544   0.536   0.540   0.562   0.575   0.631   0.595   0.607   0.589   0.596   0.596   0.554   0.548   0.574
   140.50    0.551   0.543   0.532   0.541   0.562   0.532   0.541   0.523   0.544   0.541   0.566   0.562   0.549   0.595   0.610   0.572   0.618   0.609   0.587   0.605   0.580   0.575   0.590   0.577   0.572   0.560   0.538   0.537   0.542   0.545   0.539   0.552   0.541   0.516   0.514   0.481   0.477   0.513   0.507   0.501   0.477   0.507   0.499   0.504   0.554   0.569   0.548   0.535   0.538   0.531   0.563   0.552   0.525   0.491   0.488   0.530   0.529   0.522   0.542   0.556   0.547   0.540   0.560   0.552   0.537   0.574   0.537   0.516   0.525   0.529   0.554   0.573   0.586   0.544   0.580   0.591   0.595   0.584   0.619   0.596   0.633   0.619   0.599   0.634   0.659   0.626   0.583   0.591   0.621   0.635   0.691   0.694   0.734   0.747   0.759   0.737   0.682   0.663   0.598   0.617   0.631   0.680   0.694   0.637   0.641   0.646   0.617   0.600   0.598   0.539   0.538   0.542   0.474   0.463   0.463   0.507   0.525   0.510   0.501   0.510   0.515   0.476   0.464   0.458   0.481   0.548   0.560   0.574   0.568   0.565   0.502   0.511   0.515   0.487   0.487   0.550   0.594   0.578   0.577   0.576   0.572   0.543   0.565   0.540   0.542   0.545   0.616   0.601   0.578   0.583   0.543   0.572   0.536   0.572   0.565   0.559   0.557   0.553   0.565   0.511   0.528   0.503   0.515   0.549   0.544   0.529   0.520   0.476   0.479   0.514   0.496   0.548   0.597   0.637   0.659   0.620   0.620   0.605   0.552   0.561   0.554   0.544   0.565   0.594   0.638   0.656   0.600   0.597   0.595   0.612   0.604   0.581   0.635
   131.20    0.548   0.537   0.559   0.558   0.575   0.555   0.550   0.581   0.515   0.533   0.552   0.529   0.533   0.553   0.585   0.555   0.590   0.607   0.618   0.572   0.569   0.566   0.605   0.593   0.604   0.575   0.559   0.505   0.534   0.495   0.516   0.518   0.504   0.517   0.515   0.477   0.479   0.477   0.498   0.467   0.476   0.482   0.507   0.485   0.503   0.524   0.516   0.479   0.525   0.539   0.571   0.532   0.521   0.522   0.535   0.559   0.562   0.563   0.587   0.579   0.570   0.560   0.565   0.528   0.527   0.566   0.526   0.525   0.525   0.520   0.556   0.574   0.540   0.558   0.605   0.557   0.588   0.623   0.606   0.605   0.567   0.604   0.581   0.615   0.612   0.656   0.581   0.593   0.616   0.672   0.705   0.722   0.757   0.756   0.775   0.746   0.698   0.645   0.634   0.671   0.642   0.652   0.636   0.675   0.630   0.601   0.625   0.646   0.619   0.553   0.502   0.526   0.509   0.490   0.469   0.500   0.482   0.501   0.502   0.526   0.510   0.493   0.448   0.484   0.492   0.545   0.548   0.554   0.524   0.534   0.498   0.485   0.520   0.471   0.489   0.526   0.564   0.565   0.569   0.580   0.555   0.587   0.578   0.586   0.602   0.596   0.640   0.633   0.595   0.574   0.605   0.582   0.559   0.568   0.593   0.565   0.590   0.586   0.525   0.518   0.526   0.514   0.519   0.548   0.564   0.535   0.530   0.520   0.532   0.493   0.517   0.561   0.565   0.598   0.629   0.628   0.625   0.603   0.593   0.561   0.536   0.561   0.581   0.600   0.561   0.604   0.592   0.590   0.576   0.585   0.564   0.596   0.609
   121.90    0.575   0.603   0.575   0.589   0.576   0.572   0.564   0.551   0.552   0.567   0.558   0.545   0.564   0.548   0.560   0.555   0.595   0.586   0.555   0.576   0.563   0.564   0.564   0.593   0.613   0.582   0.573   0.503   0.505   0.472   0.466   0.479   0.473   0.495   0.507   0.494   0.482   0.496   0.482   0.481   0.477   0.507   0.503   0.469   0.497   0.510   0.482   0.494   0.517   0.500   0.533   0.523   0.531   0.554   0.563   0.564   0.573   0.571   0.581   0.589   0.596   0.577   0.554   0.513   0.549   0.598   0.556   0.517   0.521   0.536   0.547   0.584   0.603   0.552   0.571   0.576   0.579   0.604   0.624   0.571   0.577   0.637   0.597   0.595   0.601   0.623   0.639   0.644   0.674   0.732   0.745   0.745   0.730   0.737   0.768   0.720   0.697   0.645   0.641   0.668   0.665   0.647   0.654   0.621   0.666   0.651   0.682   0.681   0.629   0.591   0.531   0.504   0.498   0.476   0.506   0.506   0.481   0.485   0.508   0.482   0.529   0.506   0.464   0.490   0.505   0.550   0.513   0.544   0.542   0.582   0.548   0.511   0.500   0.503   0.519   0.546   0.553   0.573   0.566   0.583   0.551   0.570   0.569   0.588   0.607   0.612   0.604   0.638   0.611   0.589   0.598   0.609   0.571   0.579   0.561   0.582   0.618   0.617   0.563   0.559   0.555   0.555   0.537   0.519   0.506   0.543   0.566   0.535   0.509   0.483   0.483   0.543   0.580   0.572   0.612   0.619   0.656   0.628   0.608   0.566   0.545   0.528   0.562   0.573   0.567   0.561   0.584   0.591   0.606   0.594   0.575   0.647   0.690
   112.60    0.551   0.590   0.614   0.585   0.570   0.536   0.556   0.566   0.503   0.551   0.576   0.574   0.577   0.533   0.567   0.558   0.569   0.585   0.575   0.558   0.528   0.535   0.544   0.566   0.597   0.579   0.577   0.560   0.506   0.470   0.481   0.465   0.495   0.484   0.455   0.479   0.481   0.477   0.449   0.480   0.491   0.456   0.482   0.475   0.520   0.506   0.482   0.458   0.457   0.510   0.518   0.539   0.519   0.534   0.551   0.553   0.579   0.560   0.527   0.548   0.569   0.602   0.568   0.567   0.571   0.584   0.551   0.541   0.520   0.519   0.537   0.555   0.574   0.567   0.568   0.605   0.594   0.575   0.544   0.559   0.612   0.646   0.644   0.590   0.644   0.681   0.700   0.681   0.696   0.758   0.797   0.792   0.791   0.766   0.743   0.716   0.687   0.636   0.702   0.672   0.681   0.723   0.681   0.664   0.643   0.697   0.716   0.683   0.675   0.602   0.595   0.518   0.535   0.487   0.508   0.473   0.490   0.509   0.547   0.508   0.528   0.530   0.491   0.494   0.523   0.527   0.520   0.532   0.540   0.514   0.540   0.535   0.506   0.514   0.522   0.518   0.543   0.537   0.583   0.571   0.564   0.543   0.580   0.594   0.580   0.607   0.610   0.596   0.612   0.620   0.613   0.648   0.617   0.650   0.616   0.639   0.612   0.587   0.568   0.572   0.549   0.550   0.507   0.520   0.501   0.518   0.560   0.563   0.467   0.507   0.517   0.566   0.574   0.577   0.596   0.631   0.644   0.628   0.576   0.568   0.508   0.559   0.567   0.570   0.543   0.530   0.597   0.595   0.605   0.597   0.613   0.656   0.700
   103.30    0.538   0.566   0.568   0.551   0.582   0.572   0.588   0.533   0.539   0.564   0.570   0.559   0.525   0.528   0.547   0.538   0.547   0.559   0.536   0.548   0.540   0.512   0.498   0.582   0.581   0.578   0.577   0.523   0.509   0.469   0.456   0.483   0.486   0.441   0.477   0.487   0.485   0.502   0.473   0.509   0.508   0.508   0.542   0.538   0.521   0.483   0.492   0.491   0.521   0.530   0.563   0.540   0.515   0.520   0.534   0.545   0.535   0.534   0.545   0.530   0.578   0.602   0.612   0.593   0.616   0.574   0.531   0.549   0.538   0.532   0.529   0.577   0.609   0.588   0.596   0.576   0.575   0.524   0.558   0.560   0.617   0.631   0.656   0.653   0.650   0.672   0.693   0.702   0.711   0.762   0.782   0.792   0.773   0.778   0.732   0.731   0.661   0.671   0.664   0.677   0.713   0.692   0.664   0.661   0.646   0.679   0.687   0.653   0.666   0.629   0.617   0.589   0.536   0.504   0.514   0.527   0.504   0.518   0.536   0.522   0.547   0.567   0.524   0.561   0.559   0.545   0.513   0.517   0.504   0.532   0.552   0.558   0.533   0.534   0.509   0.551   0.561   0.542   0.570   0.612   0.552   0.537   0.561   0.599   0.592   0.604   0.591   0.552   0.605   0.613   0.663   0.645   0.645   0.658   0.656   0.611   0.616   0.579   0.585   0.557   0.540   0.523   0.507   0.463   0.475   0.535   0.531   0.555   0.503   0.480   0.538   0.559   0.590   0.580   0.623   0.611   0.654   0.624   0.592   0.569   0.518   0.537   0.551   0.556   0.548   0.550   0.555   0.602   0.574   0.609   0.624   0.627   0.669
    94.00    0.487   0.543   0.578   0.577   0.585   0.602   0.571   0.562   0.561   0.554   0.565   0.541   0.524   0.535   0.559   0.567   0.561   0.512   0.511   0.503   0.522   0.475   0.508   0.562   0.533   0.535   0.551   0.547   0.488   0.468   0.449   0.487   0.479   0.484   0.490   0.517   0.503   0.489   0.493   0.489   0.497   0.491   0.531   0.487   0.485   0.517   0.499   0.531   0.564   0.553   0.548   0.568   0.524   0.524   0.504   0.504   0.498   0.541   0.515   0.518   0.558   0.590   0.605   0.594   0.577   0.566   0.525   0.525   0.530   0.533   0.557   0.551   0.562   0.565   0.581   0.555   0.549   0.542   0.595   0.603   0.604   0.651   0.664   0.656   0.697   0.732   0.718   0.770   0.797   0.775   0.821   0.829   0.760   0.751   0.742   0.693   0.685   0.687   0.657   0.615   0.610   0.624   0.633   0.636   0.660   0.690   0.657   0.645   0.634   0.642   0.629   0.596   0.574   0.578   0.599   0.566   0.537   0.555   0.536   0.536   0.551   0.571   0.544   0.557   0.546   0.509   0.526   0.519   0.523   0.556   0.540   0.566   0.591   0.565   0.543   0.580   0.581   0.552   0.572   0.585   0.608   0.568   0.537   0.559   0.584   0.607   0.571   0.584   0.598   0.581   0.631   0.642   0.584   0.639   0.636   0.632   0.628   0.629   0.566   0.565   0.535   0.507   0.461   0.487   0.492   0.539   0.570   0.522   0.512   0.518   0.543   0.533   0.557   0.567   0.580   0.614   0.645   0.604   0.598   0.584   0.535   0.509   0.565   0.552   0.574   0.531   0.557   0.558   0.559   0.592   0.638   0.640   0.674
    84.70    0.515   0.526   0.559   0.545   0.571   0.601   0.517   0.560   0.556   0.566   0.535   0.536   0.511   0.527   0.531   0.534   0.535   0.520   0.513   0.486   0.472   0.480   0.476   0.516   0.501   0.515   0.518   0.555   0.540   0.483   0.475   0.481   0.503   0.506   0.481   0.535   0.515   0.495   0.529   0.523   0.475   0.500   0.519   0.510   0.516   0.510   0.533   0.531   0.583   0.578   0.553   0.536   0.543   0.502   0.508   0.523   0.518   0.518   0.516   0.532   0.522   0.542   0.564   0.555   0.522   0.561   0.556   0.494   0.529   0.542   0.542   0.565   0.552   0.565   0.543   0.582   0.580   0.602   0.604   0.609   0.625   0.622   0.624   0.657   0.688   0.770   0.769   0.820   0.801   0.841   0.814   0.820   0.756   0.720   0.710   0.708   0.671   0.691   0.704   0.658   0.646   0.667   0.660   0.638   0.623   0.649   0.641   0.615   0.632   0.600   0.637   0.602   0.615   0.608   0.625   0.611   0.551   0.530   0.509   0.553   0.550   0.535   0.536   0.536   0.497   0.504   0.539   0.543   0.552   0.558   0.572   0.561   0.545   0.588   0.575   0.540   0.542   0.571   0.574   0.568   0.565   0.546   0.538   0.552   0.566   0.581   0.579   0.548   0.573   0.585   0.613   0.580   0.586   0.597   0.583   0.626   0.622   0.619   0.602   0.580   0.509   0.493   0.469   0.459   0.475   0.524   0.505   0.509   0.523   0.503   0.500   0.528   0.573   0.586   0.542   0.557   0.578   0.583   0.575   0.583   0.554   0.541   0.575   0.583   0.529   0.537   0.549   0.552   0.541   0.584   0.603   0.650   0.663
    75.40    0.561   0.522   0.548   0.563   0.583   0.585   0.584   0.543   0.559   0.575   0.564   0.512   0.525   0.493   0.520   0.560   0.531   0.527   0.501   0.456   0.472   0.492   0.519   0.481   0.514   0.492   0.494   0.532   0.528   0.526   0.514   0.479   0.510   0.548   0.514   0.552   0.526   0.561   0.527   0.515   0.487   0.500   0.522   0.527   0.527   0.474   0.495   0.560   0.543   0.552   0.580   0.539   0.538   0.519   0.536   0.530   0.533   0.497   0.482   0.506   0.546   0.525   0.543   0.583   0.565   0.567   0.553   0.516   0.492   0.546   0.518   0.571   0.541   0.554   0.543   0.573   0.574   0.605   0.586   0.599   0.610   0.576   0.623   0.657   0.729   0.766   0.811   0.812   0.823   0.829   0.812   0.759   0.750   0.752   0.731   0.706   0.687   0.696   0.644   0.636   0.633   0.625   0.630   0.632   0.602   0.622   0.637   0.601   0.597   0.576   0.603   0.617   0.604   0.615   0.634   0.601   0.581   0.568   0.565   0.527   0.537   0.510   0.536   0.502   0.494   0.537   0.557   0.551   0.581   0.592   0.558   0.579   0.609   0.595   0.543   0.571   0.539   0.527   0.561   0.574   0.563   0.582   0.546   0.500   0.570   0.587   0.564   0.549   0.533   0.616   0.642   0.596   0.601   0.604   0.632   0.618   0.634   0.611   0.566   0.555   0.536   0.510   0.502   0.503   0.487   0.522   0.534   0.519   0.547   0.519   0.498   0.518   0.527   0.553   0.546   0.563   0.575   0.567   0.577   0.564   0.571   0.572   0.532   0.519   0.514   0.480   0.467   0.481   0.515   0.513   0.558   0.598   0.600
    66.10    0.532   0.522   0.531   0.544   0.570   0.589   0.584   0.582   0.560   0.523   0.534   0.526   0.517   0.495   0.486   0.531   0.548   0.544   0.483   0.441   0.458   0.477   0.499   0.483   0.487   0.480   0.466   0.489   0.516   0.505   0.515   0.537   0.566   0.598   0.564   0.562   0.550   0.538   0.557   0.534   0.537   0.542   0.567   0.527   0.532   0.517   0.517   0.567   0.534   0.559   0.536   0.566   0.537   0.549   0.518   0.515   0.521   0.508   0.479   0.507   0.527   0.543   0.553   0.575   0.580   0.554   0.515   0.486   0.485   0.512   0.517   0.561   0.574   0.567   0.573   0.570   0.590   0.569   0.622   0.630   0.578   0.656   0.625   0.669   0.742   0.739   0.772   0.823   0.805   0.815   0.803   0.803   0.793   0.749   0.746   0.711   0.719   0.691   0.665   0.596   0.609   0.615   0.629   0.602   0.605   0.619   0.640   0.603   0.596   0.591   0.627   0.633   0.644   0.636   0.620   0.618   0.600   0.585   0.573   0.574   0.550   0.522   0.542   0.538   0.548   0.573   0.564   0.557   0.583   0.580   0.554   0.540   0.545   0.582   0.568   0.566   0.566   0.554   0.507   0.499   0.497   0.561   0.573   0.572   0.600   0.590   0.586   0.541   0.604   0.606   0.622   0.572   0.592   0.651   0.665   0.628   0.572   0.543   0.542   0.553   0.529   0.499   0.517   0.484   0.511   0.536   0.534   0.545   0.511   0.535   0.490   0.486   0.539   0.520   0.539   0.540   0.602   0.600   0.571   0.545   0.547   0.578   0.535   0.491   0.470   0.484   0.493   0.488   0.478   0.534   0.553   0.592   0.587
    56.80    0.515   0.493   0.533   0.554   0.529   0.570   0.572   0.581   0.589   0.558   0.530   0.542   0.550   0.524   0.529   0.515   0.544   0.549   0.487   0.488   0.469   0.483   0.485   0.507   0.502   0.446   0.468   0.491   0.517   0.524   0.558   0.574   0.571   0.602   0.623   0.592   0.565   0.577   0.538   0.513   0.536   0.539   0.522   0.560   0.549   0.546   0.532   0.555   0.604   0.578   0.565   0.577   0.536   0.551   0.561   0.575   0.522   0.506   0.490   0.482   0.474   0.521   0.518   0.546   0.547   0.521   0.521   0.497   0.498   0.482   0.525   0.543   0.566   0.533   0.556   0.571   0.580   0.597   0.598   0.601   0.612   0.646   0.694   0.680   0.742   0.752   0.794   0.786   0.769   0.817   0.791   0.783   0.790   0.778   0.712   0.711   0.727   0.709   0.687   0.648   0.652   0.645   0.615   0.601   0.577   0.614   0.635   0.641   0.623   0.579   0.613   0.581   0.618   0.676   0.679   0.625   0.629   0.600   0.569   0.558   0.545   0.547   0.595   0.571   0.534   0.593   0.586   0.571   0.556   0.546   0.523   0.534   0.591   0.590   0.565   0.570   0.548   0.536   0.474   0.439   0.465   0.502   0.521   0.548   0.571   0.586   0.541   0.524   0.555   0.549   0.594   0.546   0.552   0.608   0.649   0.584   0.562   0.541   0.576   0.553   0.502   0.525   0.518   0.488   0.501   0.572   0.561   0.558   0.526   0.553   0.532   0.500   0.538   0.537   0.552   0.575   0.572   0.547   0.544   0.570   0.584   0.600   0.540   0.518   0.506   0.490   0.502   0.472   0.489   0.494   0.518   0.561   0.560
    47.50    0.532   0.583   0.559   0.561   0.529   0.567   0.549   0.554   0.541   0.545   0.591   0.559   0.572   0.519   0.509   0.509   0.550   0.534   0.512   0.521   0.474   0.478   0.515   0.547   0.533   0.468   0.486   0.517   0.536   0.553   0.572   0.569   0.587   0.580   0.642   0.615   0.621   0.595   0.528   0.538   0.524   0.519   0.512   0.515   0.535   0.513   0.543   0.588   0.604   0.602   0.566   0.584   0.582   0.600   0.576   0.548   0.575   0.526   0.502   0.477   0.495   0.501   0.526   0.535   0.559   0.507   0.494   0.549   0.503   0.489   0.527   0.499   0.487   0.491   0.495   0.525   0.556   0.590   0.588   0.621   0.614   0.674   0.733   0.735   0.734   0.726   0.740   0.733   0.719   0.770   0.754   0.752   0.778   0.767   0.712   0.685   0.750   0.736   0.684   0.649   0.649   0.625   0.624   0.654   0.615   0.629   0.616   0.636   0.650   0.620   0.598   0.596   0.590   0.654   0.639   0.598   0.568   0.574   0.597   0.584   0.570   0.557   0.541   0.586   0.613   0.612   0.616   0.565   0.553   0.521   0.538   0.553   0.584   0.586   0.565   0.546   0.524   0.494   0.467   0.457   0.446   0.459   0.504   0.536   0.557   0.524   0.534   0.551   0.574   0.537   0.550   0.530   0.532   0.533   0.605   0.580   0.544   0.576   0.593   0.502   0.498   0.503   0.531   0.510   0.500   0.570   0.585   0.522   0.541   0.566   0.539   0.533   0.553   0.559   0.553   0.542   0.569   0.553   0.548   0.574   0.582   0.578   0.568   0.562   0.541   0.479   0.460   0.467   0.508   0.519   0.516   0.524   0.549
    38.20    0.532   0.574   0.577   0.575   0.584   0.574   0.538   0.559   0.543   0.518   0.544   0.564   0.544   0.513   0.527   0.489   0.503   0.534   0.538   0.520   0.521   0.503   0.527   0.554   0.543   0.510   0.504   0.518   0.546   0.582   0.589   0.574   0.581   0.564   0.580   0.592   0.582   0.553   0.572   0.571   0.553   0.513   0.507   0.500   0.494   0.510   0.528   0.574   0.568   0.587   0.549   0.589   0.576   0.584   0.558   0.572   0.550   0.527   0.512   0.498   0.505   0.525   0.518   0.506   0.530   0.527   0.505   0.539   0.523   0.499   0.522   0.457   0.502   0.499   0.518   0.545   0.524   0.586   0.630   0.607   0.658   0.681   0.708   0.699   0.701   0.703   0.683   0.712   0.705   0.770   0.763   0.746   0.767   0.784   0.765   0.722   0.734   0.720   0.725   0.651   0.626   0.600   0.619   0.618   0.648   0.646   0.658   0.651   0.692   0.654   0.635   0.682   0.647   0.659   0.624   0.580   0.591   0.611   0.589   0.571   0.598   0.600   0.562   0.598   0.607   0.619   0.625   0.627   0.592   0.544   0.551   0.562   0.563   0.536   0.549   0.535   0.507   0.476   0.461   0.480   0.482   0.489   0.554   0.534   0.535   0.528   0.544   0.573   0.563   0.572   0.536   0.530   0.515   0.562   0.575   0.532   0.545   0.546   0.545   0.545   0.505   0.516   0.527   0.523   0.523   0.586   0.614   0.568   0.578   0.558   0.534   0.543   0.522   0.534   0.535   0.552   0.548   0.529   0.551   0.574   0.561   0.591   0.618   0.585   0.546   0.494   0.510   0.503   0.484   0.498   0.482   0.474   0.549
    28.90    0.561   0.547   0.571   0.553   0.607   0.608   0.550   0.543   0.496   0.524   0.545   0.547   0.559   0.545   0.564   0.543   0.507   0.534   0.565   0.529   0.529   0.511   0.516   0.556   0.538   0.529   0.547   0.529   0.568   0.586   0.612   0.609   0.630   0.586   0.578   0.576   0.597   0.595   0.618   0.585   0.575   0.525   0.521   0.534   0.513   0.511   0.511   0.530   0.516   0.554   0.563   0.580   0.600   0.533   0.550   0.566   0.577   0.540   0.546   0.550   0.498   0.521   0.506   0.504   0.525   0.506   0.522   0.532   0.498   0.492   0.486   0.509   0.514   0.538   0.543   0.566   0.536   0.543   0.610   0.612   0.623   0.675   0.693   0.752   0.708   0.688   0.690   0.729   0.712   0.739   0.737   0.746   0.776   0.773   0.753   0.743   0.736   0.748   0.729   0.676   0.617   0.663   0.639   0.671   0.643   0.654   0.658   0.657   0.693   0.702   0.640   0.664   0.629   0.626   0.633   0.593   0.612   0.579   0.553   0.539   0.554   0.578   0.590   0.611   0.605   0.591   0.622   0.643   0.596   0.524   0.519   0.546   0.526   0.511   0.511   0.506   0.499   0.491   0.510   0.510   0.535   0.572   0.541   0.545   0.542   0.554   0.543   0.553   0.555   0.549   0.511   0.531   0.545   0.550   0.551   0.576   0.541   0.538   0.550   0.565   0.555   0.568   0.530   0.518   0.552   0.565   0.573   0.593   0.531   0.567   0.550   0.532   0.517   0.518   0.572   0.557   0.526   0.522   0.536   0.559   0.579   0.573   0.573   0.602   0.534   0.516   0.536   0.485   0.489   0.514   0.490   0.490   0.541
    19.60    0.576   0.581   0.611   0.598   0.617   0.593   0.567   0.524   0.502   0.551   0.557   0.577   0.533   0.511   0.542   0.534   0.538   0.531   0.537   0.551   0.566   0.539   0.539   0.565   0.549   0.531   0.547   0.532   0.577   0.602   0.605   0.608   0.614   0.608   0.588   0.567   0.591   0.610   0.568   0.588   0.578   0.592   0.582   0.572   0.599   0.531   0.550   0.550   0.529   0.560   0.606   0.590   0.595   0.562   0.516   0.567   0.554   0.544   0.560   0.558   0.523   0.516   0.521   0.534   0.555   0.521   0.515   0.513   0.469   0.486   0.516   0.532   0.525   0.546   0.556   0.581   0.527   0.591   0.614   0.631   0.638   0.668   0.695   0.719   0.678   0.653   0.697   0.698   0.711   0.759   0.712   0.711   0.721   0.696   0.708   0.691   0.700   0.704   0.698   0.678   0.641   0.620   0.641   0.636   0.632   0.617   0.655   0.676   0.676   0.653   0.672   0.610   0.610   0.619   0.623   0.557   0.563   0.584   0.521   0.548   0.537   0.593   0.580   0.568   0.600   0.603   0.634   0.630   0.577   0.554   0.532   0.514   0.493   0.498   0.484   0.467   0.492   0.506   0.529   0.490   0.547   0.540   0.548   0.519   0.557   0.586   0.587   0.540   0.560   0.574   0.577   0.561   0.540   0.538   0.567   0.562   0.527   0.529   0.519   0.552   0.553   0.558   0.527   0.577   0.591   0.556   0.578   0.561   0.543   0.561   0.560   0.561   0.546   0.539   0.528   0.522   0.519   0.522   0.525   0.534   0.550   0.543   0.549   0.581   0.512   0.521   0.531   0.519   0.509   0.500   0.501   0.532   0.526
    10.30    0.578   0.559   0.605   0.618   0.606   0.540   0.548   0.522   0.530   0.528   0.539   0.550   0.564   0.571   0.540   0.558   0.514   0.536   0.527   0.543   0.560   0.567   0.587   0.551   0.539   0.562   0.513   0.543   0.559   0.566   0.577   0.577   0.589   0.581   0.564   0.596   0.596   0.562   0.556   0.530   0.569   0.569   0.582   0.541   0.549   0.530   0.519   0.521   0.546   0.595   0.614   0.616   0.578   0.555   0.531   0.533   0.547   0.545   0.560   0.557   0.534   0.553   0.540   0.549   0.554   0.522   0.504   0.502   0.509   0.504   0.538   0.517   0.529   0.556   0.566   0.576   0.612   0.626   0.613   0.657   0.683   0.729   0.733   0.728   0.740   0.687   0.699   0.670   0.640   0.664   0.678   0.720   0.700   0.643   0.665   0.699   0.658   0.665   0.668   0.617   0.602   0.585   0.584   0.589   0.648   0.654   0.672   0.660   0.678   0.643   0.626   0.600   0.572   0.536   0.536   0.522   0.564   0.550   0.542   0.553   0.573   0.567   0.574   0.567   0.563   0.580   0.584   0.570   0.575   0.572   0.510   0.518   0.496   0.509   0.503   0.496   0.475   0.513   0.543   0.525   0.534   0.522   0.542   0.550   0.555   0.580   0.564   0.551   0.562   0.553   0.566   0.573   0.586   0.556   0.546   0.571   0.536   0.497   0.501   0.520   0.595   0.556   0.573   0.577   0.555   0.566   0.586   0.580   0.580   0.570   0.625   0.552   0.559   0.517   0.541   0.533   0.527   0.552   0.555   0.519   0.539   0.577   0.568   0.591   0.542   0.531   0.529   0.519   0.533   0.529   0.523   0.530   0.555
     1.00    0.573   0.598   0.591   0.610   0.609   0.542   0.551   0.531   0.547   0.563   0.554   0.541   0.538   0.549   0.503   0.542   0.518   0.531   0.546   0.535   0.592   0.521   0.550   0.599   0.557   0.565   0.550   0.563   0.571   0.580   0.555   0.602   0.584   0.600   0.591   0.588   0.569   0.576   0.533   0.570   0.581   0.576   0.554   0.547   0.565   0.527   0.520   0.576   0.597   0.642   0.598   0.591   0.594   0.547   0.523   0.518   0.539   0.519   0.517   0.544   0.537   0.535   0.572   0.597   0.555   0.482   0.502   0.465   0.493   0.487   0.498   0.536   0.540   0.524   0.539   0.573   0.611   0.625   0.639   0.667   0.706   0.698   0.690   0.719   0.701   0.719   0.657   0.646   0.645   0.626   0.611   0.668   0.647   0.643   0.627   0.616   0.632   0.663   0.643   0.652   0.595   0.586   0.596   0.607   0.591   0.602   0.629   0.641   0.610   0.608   0.590   0.517   0.527   0.518   0.497   0.482   0.538   0.556   0.562   0.553   0.552   0.569   0.560   0.599   0.602   0.593   0.616   0.569   0.583   0.556   0.531   0.512   0.491   0.505   0.518   0.527   0.495   0.475   0.497   0.503   0.496   0.474   0.504   0.561   0.596   0.570   0.561   0.553   0.526   0.526   0.562   0.555   0.550   0.580   0.556   0.536   0.510   0.511   0.541   0.561   0.598   0.610   0.593   0.546   0.557   0.589   0.572   0.575   0.584   0.587   0.575   0.566   0.535   0.538   0.541   0.555   0.528   0.528   0.535   0.561   0.543   0.570   0.575   0.554   0.556   0.541   0.500   0.531   0.539   0.541   0.553   0.564   0.586

   Height   Standard deviation at grid points for the v component:
   354.40    0.472   0.471   0.477   0.466   0.437   0.447   0.434   0.404   0.402   0.410   0.427   0.396   0.421   0.428   0.431   0.428   0.429   0.408   0.420   0.428   0.447   0.445   0.418   0.464   0.484   0.478   0.490   0.474   0.439   0.450   0.438   0.438   0.423   0.453   0.463   0.433   0.439   0.464   0.451   0.462   0.461   0.443   0.451   0.474   0.472   0.495   0.492   0.464   0.487   0.506   0.503   0.502   0.485   0.492   0.477   0.496   0.515   0.525   0.522   0.539   0.531   0.497   0.470   0.471   0.470   0.460   0.440   0.431   0.436   0.452   0.478   0.475   0.472   0.446   0.446   0.469   0.464   0.434   0.450   0.476   0.450   0.500   0.506   0.496   0.491   0.496   0.481   0.500   0.474   0.470   0.454   0.432   0.429   0.432   0.463   0.478   0.476   0.438   0.450   0.456   0.455   0.477   0.496   0.481   0.489   0.481   0.493   0.491   0.474   0.475   0.474   0.451   0.432   0.454   0.462   0.452   0.454   0.454   0.444   0.466   0.476   0.467   0.488   0.486   0.463   0.473   0.473   0.502   0.498   0.511   0.517   0.538   0.525   0.524   0.504   0.514   0.494   0.486   0.476   0.478   0.487   0.476   0.466   0.473   0.458   0.466   0.490   0.510   0.518   0.489   0.512   0.498   0.490   0.486   0.480   0.485   0.488   0.499   0.474   0.470   0.461   0.445   0.415   0.427   0.432   0.446   0.453   0.453   0.416   0.445   0.425   0.430   0.454   0.472   0.493   0.511   0.510   0.499   0.485   0.489   0.500   0.497   0.488   0.460   0.447   0.462   0.438   0.435   0.437   0.467   0.460   0.448   0.472
   345.10    0.468   0.471   0.477   0.471   0.466   0.469   0.445   0.421   0.413   0.438   0.441   0.442   0.439   0.428   0.437   0.441   0.441   0.412   0.427   0.427   0.451   0.471   0.454   0.460   0.494   0.497   0.497   0.502   0.457   0.431   0.442   0.426   0.430   0.422   0.418   0.431   0.452   0.442   0.435   0.434   0.458   0.509   0.494   0.502   0.520   0.530   0.505   0.484   0.514   0.505   0.514   0.504   0.485   0.482   0.513   0.505   0.508   0.521   0.501   0.515   0.491   0.496   0.486   0.470   0.462   0.441   0.424   0.423   0.427   0.466   0.479   0.458   0.476   0.471   0.445   0.451   0.459   0.450   0.466   0.483   0.457   0.461   0.495   0.491   0.500   0.498   0.474   0.478   0.455   0.493   0.453   0.454   0.451   0.433   0.457   0.467   0.486   0.492   0.436   0.433   0.453   0.472   0.487   0.501   0.522   0.509   0.515   0.509   0.487   0.477   0.455   0.442   0.438   0.439   0.459   0.447   0.441   0.445   0.453   0.461   0.449   0.471   0.492   0.492   0.476   0.493   0.490   0.490   0.508   0.542   0.536   0.533   0.522   0.497   0.483   0.487   0.487   0.507   0.486   0.495   0.495   0.508   0.479   0.463   0.448   0.444   0.474   0.516   0.491   0.504   0.488   0.508   0.490   0.475   0.491   0.465   0.501   0.478   0.479   0.481   0.494   0.457   0.439   0.426   0.452   0.459   0.437   0.439   0.451   0.447   0.442   0.483   0.463   0.461   0.483   0.498   0.506   0.491   0.488   0.495   0.480   0.486   0.502   0.467   0.438   0.455   0.448   0.471   0.439   0.464   0.468   0.460   0.461
   335.80    0.454   0.461   0.469   0.461   0.444   0.452   0.442   0.434   0.429   0.451   0.448   0.455   0.447   0.443   0.450   0.454   0.444   0.436   0.441   0.455   0.489   0.466   0.477   0.465   0.484   0.474   0.461   0.453   0.456   0.426   0.439   0.455   0.441   0.424   0.414   0.425   0.421   0.429   0.440   0.431   0.469   0.507   0.494   0.502   0.502   0.509   0.503   0.521   0.510   0.495   0.490   0.486   0.474   0.487   0.499   0.496   0.522   0.513   0.517   0.524   0.504   0.502   0.514   0.506   0.461   0.455   0.440   0.457   0.440   0.485   0.481   0.454   0.502   0.470   0.442   0.457   0.448   0.476   0.485   0.466   0.456   0.443   0.461   0.459   0.457   0.438   0.471   0.466   0.468   0.483   0.482   0.483   0.487   0.467   0.444   0.486   0.494   0.456   0.461   0.439   0.474   0.483   0.491   0.514   0.507   0.506   0.479   0.467   0.459   0.460   0.462   0.474   0.453   0.473   0.474   0.464   0.457   0.440   0.474   0.459   0.455   0.485   0.491   0.478   0.495   0.467   0.467   0.496   0.502   0.507   0.506   0.483   0.513   0.499   0.487   0.487   0.472   0.487   0.474   0.490   0.504   0.503   0.499   0.473   0.453   0.465   0.480   0.479   0.480   0.485   0.486   0.503   0.505   0.485   0.457   0.478   0.457   0.470   0.463   0.477   0.497   0.439   0.411   0.436   0.449   0.457   0.452   0.464   0.472   0.476   0.468   0.464   0.462   0.467   0.491   0.494   0.502   0.491   0.494   0.473   0.468   0.480   0.459   0.475   0.466   0.462   0.440   0.454   0.457   0.454   0.458   0.439   0.444
   326.50    0.477   0.469   0.471   0.453   0.461   0.433   0.424   0.418   0.411   0.436   0.450   0.446   0.453   0.468   0.452   0.467   0.438   0.420   0.440   0.461   0.464   0.492   0.484   0.479   0.485   0.505   0.488   0.463   0.453   0.426   0.428   0.446   0.437   0.450   0.437   0.441   0.430   0.431   0.421   0.426   0.456   0.481   0.480   0.499   0.491   0.504   0.516   0.511   0.486   0.493   0.457   0.462   0.474   0.490   0.487   0.500   0.508   0.512   0.507   0.524   0.515   0.517   0.511   0.498   0.485   0.472   0.445   0.434   0.450   0.466   0.468   0.471   0.487   0.476   0.448   0.456   0.455   0.468   0.474   0.478   0.441   0.437   0.437   0.445   0.463   0.462   0.445   0.468   0.494   0.491   0.494   0.463   0.480   0.464   0.451   0.449   0.474   0.441   0.443   0.431   0.461   0.480   0.498   0.489   0.476   0.466   0.441   0.443   0.438   0.455   0.471   0.489   0.457   0.484   0.491   0.481   0.460   0.457   0.445   0.463   0.467   0.464   0.475   0.485   0.499   0.476   0.484   0.511   0.493   0.482   0.482   0.463   0.472   0.509   0.482   0.479   0.482   0.474   0.463   0.488   0.463   0.484   0.468   0.478   0.452   0.461   0.478   0.498   0.519   0.512   0.498   0.492   0.501   0.496   0.472   0.455   0.464   0.453   0.455   0.470   0.479   0.467   0.435   0.427   0.432   0.436   0.446   0.466   0.462   0.484   0.497   0.479   0.491   0.501   0.481   0.486   0.507   0.502   0.505   0.453   0.464   0.458   0.472   0.477   0.472   0.448   0.429   0.427   0.435   0.459   0.458   0.440   0.441
[...]
   103.30    0.280   0.288   0.286   0.290   0.282   0.277   0.280   0.271   0.270   0.282   0.286   0.286   0.283   0.280   0.277   0.285   0.288   0.286   0.289   0.290   0.289   0.284   0.289   0.289   0.272   0.288   0.290   0.289   0.290   0.300   0.300   0.293   0.298   0.303   0.308   0.302   0.315   0.306   0.298   0.281   0.286   0.291   0.293   0.297   0.290   0.292   0.292   0.285   0.290   0.285   0.283   0.277   0.294   0.286   0.297   0.291   0.283   0.290   0.289   0.277   0.284   0.294   0.285   0.277   0.283   0.283   0.281   0.291   0.294   0.283   0.284   0.280   0.283   0.291   0.286   0.272   0.273   0.280   0.287   0.284   0.285   0.292   0.284   0.291   0.276   0.275   0.273   0.276   0.279   0.268   0.282   0.289   0.292   0.292   0.287   0.281   0.277   0.278   0.287   0.288   0.291   0.284   0.281   0.286   0.287   0.287   0.285   0.275   0.270   0.273   0.280   0.280   0.284   0.285   0.290   0.300   0.287   0.289   0.284   0.277   0.275   0.278   0.274   0.277   0.276   0.279   0.279   0.276   0.266   0.270   0.282   0.272   0.278   0.282   0.279   0.280   0.291   0.286   0.276   0.286   0.281   0.274   0.277   0.273   0.276   0.272   0.281   0.287   0.288   0.285   0.294   0.291   0.291   0.287   0.288   0.285   0.271   0.276   0.277   0.285   0.278   0.276   0.274   0.280   0.284   0.280   0.274   0.277   0.274   0.280   0.282   0.271   0.278   0.276   0.281   0.282   0.281   0.284   0.281   0.288   0.283   0.287   0.283   0.286   0.285   0.293   0.285   0.284   0.283   0.270   0.284   0.291   0.288
    94.00    0.267   0.271   0.289   0.290   0.277   0.283   0.276   0.273   0.273   0.285   0.277   0.284   0.283   0.290   0.276   0.270   0.279   0.277   0.276   0.286   0.290   0.287   0.295   0.286   0.292   0.298   0.289   0.285   0.294   0.296   0.299   0.296   0.298   0.297   0.304   0.299   0.305   0.309   0.296   0.286   0.294   0.292   0.286   0.299   0.299   0.306   0.300   0.300   0.287   0.289   0.285   0.287   0.295   0.288   0.282   0.282   0.288   0.290   0.285   0.276   0.281   0.281   0.288   0.281   0.283   0.285   0.279   0.287   0.292   0.281   0.283   0.292   0.289   0.280   0.276   0.280   0.275   0.282   0.292   0.287   0.295   0.303   0.298   0.286   0.286   0.273   0.269   0.276   0.286   0.271   0.278   0.283   0.283   0.292   0.285   0.274   0.273   0.278   0.288   0.285   0.283   0.290   0.298   0.288   0.293   0.286   0.287   0.268   0.282   0.279   0.274   0.274   0.278   0.288   0.294   0.286   0.294   0.290   0.274   0.277   0.267   0.264   0.276   0.277   0.279   0.280   0.285   0.273   0.268   0.274   0.268   0.271   0.274   0.276   0.277   0.274   0.282   0.277   0.292   0.290   0.287   0.278   0.272   0.287   0.290   0.278   0.283   0.279   0.284   0.292   0.292   0.283   0.285   0.284   0.281   0.279   0.279   0.281   0.288   0.286   0.286   0.279   0.285   0.279   0.279   0.275   0.273   0.267   0.274   0.270   0.272   0.271   0.284   0.273   0.271   0.282   0.274   0.275   0.289   0.277   0.277   0.287   0.285   0.283   0.279   0.280   0.284   0.282   0.275   0.283   0.291   0.298   0.287
    84.70    0.271   0.268   0.288   0.288   0.283   0.277   0.278   0.277   0.288   0.287   0.285   0.283   0.281   0.283   0.278   0.282   0.272   0.278   0.282   0.281   0.283   0.279   0.280   0.288   0.290   0.301   0.303   0.287   0.279   0.291   0.300   0.304   0.297   0.301   0.295   0.300   0.295   0.299   0.301   0.309   0.306   0.302   0.292   0.298   0.301   0.294   0.300   0.306   0.303   0.294   0.288   0.292   0.293   0.288   0.286   0.282   0.280   0.277   0.278   0.273   0.271   0.277   0.285   0.292   0.285   0.286   0.299   0.295   0.289   0.293   0.291   0.289   0.277   0.281   0.277   0.273   0.277   0.288   0.286   0.291   0.297   0.303   0.297   0.288   0.285   0.284   0.279   0.277   0.285   0.284   0.280   0.285   0.287   0.290   0.289   0.285   0.285   0.289   0.298   0.293   0.289   0.298   0.306   0.307   0.299   0.287   0.277   0.278   0.287   0.286   0.278   0.275   0.279   0.291   0.296   0.286   0.293   0.289   0.280   0.278   0.281   0.273   0.280   0.277   0.274   0.277   0.285   0.287   0.277   0.272   0.276   0.272   0.271   0.261   0.276   0.280   0.274   0.279   0.285   0.286   0.289   0.280   0.272   0.280   0.283   0.279   0.278   0.279   0.283   0.286   0.281   0.289   0.285   0.280   0.284   0.283   0.280   0.291   0.287   0.282   0.294   0.287   0.281   0.274   0.278   0.285   0.278   0.279   0.280   0.280   0.273   0.278   0.287   0.285   0.274   0.280   0.278   0.281   0.299   0.288   0.276   0.284   0.290   0.293   0.288   0.290   0.290   0.289   0.291   0.283   0.292   0.281   0.289
    75.40    0.271   0.276   0.277   0.278   0.275   0.279   0.270   0.275   0.289   0.288   0.277   0.273   0.277   0.275   0.276   0.279   0.278   0.292   0.290   0.282   0.278   0.280   0.269   0.284   0.291   0.289   0.292   0.291   0.298   0.293   0.296   0.300   0.296   0.305   0.295   0.301   0.299   0.295   0.304   0.297   0.297   0.298   0.297   0.291   0.293   0.292   0.297   0.294   0.295   0.284   0.287   0.292   0.286   0.275   0.275   0.286   0.293   0.280   0.281   0.284   0.291   0.280   0.282   0.293   0.292   0.293   0.290   0.289   0.288   0.299   0.293   0.269   0.273   0.271   0.282   0.276   0.273   0.284   0.284   0.295   0.291   0.302   0.291   0.286   0.297   0.281   0.277   0.270   0.270   0.283   0.288   0.289   0.294   0.289   0.289   0.293   0.284   0.286   0.299   0.304   0.297   0.295   0.307   0.299   0.291   0.282   0.291   0.284   0.290   0.292   0.290   0.293   0.290   0.301   0.298   0.296   0.289   0.283   0.278   0.281   0.291   0.288   0.285   0.273   0.278   0.283   0.285   0.275   0.276   0.272   0.287   0.277   0.270   0.269   0.275   0.270   0.274   0.275   0.287   0.288   0.285   0.281   0.267   0.272   0.269   0.277   0.277   0.278   0.279   0.279   0.285   0.280   0.286   0.279   0.284   0.279   0.284   0.281   0.282   0.283   0.283   0.291   0.278   0.278   0.282   0.285   0.283   0.283   0.280   0.272   0.275   0.278   0.278   0.280   0.280   0.277   0.283   0.281   0.282   0.282   0.282   0.286   0.288   0.286   0.278   0.288   0.284   0.281   0.288   0.297   0.297   0.293   0.291
    66.10    0.283   0.279   0.275   0.277   0.282   0.279   0.280   0.282   0.294   0.288   0.279   0.273   0.269   0.274   0.280   0.283   0.285   0.281   0.291   0.283   0.277   0.280   0.268   0.281   0.293   0.291   0.291   0.297   0.292   0.290   0.287   0.291   0.291   0.301   0.298   0.298   0.290   0.292   0.294   0.288   0.276   0.281   0.286   0.291   0.284   0.289   0.297   0.301   0.300   0.282   0.281   0.287   0.281   0.284   0.280   0.277   0.285   0.278   0.289   0.286   0.295   0.289   0.286   0.282   0.286   0.289   0.294   0.283   0.289   0.290   0.284   0.279   0.282   0.285   0.277   0.278   0.275   0.286   0.283   0.279   0.293   0.298   0.287   0.288   0.289   0.283   0.281   0.270   0.269   0.287   0.296   0.289   0.295   0.280   0.286   0.284   0.295   0.298   0.304   0.297   0.297   0.294   0.302   0.302   0.294   0.288   0.284   0.290   0.291   0.287   0.289   0.293   0.293   0.301   0.300   0.302   0.286   0.287   0.287   0.283   0.286   0.288   0.280   0.282   0.287   0.277   0.277   0.276   0.264   0.275   0.268   0.271   0.271   0.276   0.282   0.271   0.272   0.276   0.283   0.290   0.287   0.273   0.260   0.274   0.265   0.263   0.277   0.268   0.279   0.277   0.277   0.280   0.279   0.274   0.282   0.288   0.284   0.281   0.281   0.287   0.296   0.287   0.276   0.281   0.289   0.284   0.278   0.278   0.272   0.282   0.270   0.280   0.279   0.280   0.285   0.279   0.284   0.288   0.283   0.285   0.282   0.284   0.293   0.285   0.289   0.287   0.287   0.280   0.281   0.291   0.294   0.301   0.300
    56.80    0.273   0.271   0.279   0.285   0.282   0.281   0.281   0.276   0.275   0.275   0.272   0.270   0.265   0.264   0.271   0.279   0.287   0.281   0.282   0.287   0.281   0.275   0.274   0.287   0.289   0.286   0.301   0.301   0.294   0.282   0.287   0.279   0.289   0.296   0.293   0.296   0.299   0.292   0.295   0.286   0.273   0.275   0.281   0.275   0.289   0.294   0.291   0.298   0.293   0.287   0.285   0.285   0.280   0.282   0.274   0.277   0.281   0.290   0.292   0.293   0.285   0.289   0.283   0.283   0.276   0.288   0.284   0.280   0.285   0.282   0.284   0.278   0.283   0.283   0.280   0.271   0.281   0.284   0.280   0.287   0.290   0.288   0.289   0.287   0.294   0.294   0.281   0.277   0.266   0.270   0.283   0.282   0.289   0.291   0.295   0.293   0.304   0.304   0.299   0.294   0.287   0.281   0.293   0.296   0.292   0.286   0.285   0.286   0.295   0.283   0.285   0.283   0.295   0.287   0.292   0.288   0.278   0.286   0.291   0.297   0.286   0.276   0.278   0.278   0.289   0.286   0.271   0.280   0.270   0.273   0.276   0.269   0.270   0.275   0.279   0.278   0.277   0.280   0.284   0.289   0.281   0.266   0.266   0.268   0.269   0.268   0.272   0.273   0.272   0.280   0.267   0.279   0.286   0.277   0.285   0.284   0.288   0.288   0.284   0.285   0.288   0.282   0.281   0.283   0.286   0.291   0.282   0.278   0.278   0.287   0.287   0.279   0.281   0.286   0.288   0.281   0.283   0.282   0.277   0.281   0.285   0.281   0.282   0.286   0.283   0.278   0.281   0.289   0.283   0.290   0.298   0.303   0.299
    47.50    0.273   0.266   0.278   0.283   0.286   0.295   0.277   0.277   0.276   0.277   0.274   0.266   0.268   0.263   0.266   0.276   0.280   0.281   0.286   0.282   0.285   0.281   0.289   0.288   0.294   0.291   0.295   0.300   0.298   0.290   0.283   0.281   0.288   0.290   0.290   0.288   0.287   0.288   0.292   0.280   0.275   0.276   0.280   0.286   0.285   0.287   0.296   0.286   0.284   0.277   0.280   0.280   0.280   0.281   0.270   0.271   0.273   0.273   0.287   0.285   0.292   0.293   0.282   0.269   0.269   0.278   0.275   0.290   0.285   0.286   0.284   0.279   0.276   0.274   0.279   0.274   0.277   0.270   0.273   0.287   0.287   0.285   0.292   0.291   0.291   0.291   0.283   0.280   0.283   0.275   0.279   0.280   0.291   0.284   0.288   0.289   0.292   0.306   0.303   0.303   0.281   0.282   0.291   0.294   0.287   0.283   0.287   0.285   0.288   0.282   0.278   0.289   0.283   0.274   0.286   0.286   0.279   0.285   0.291   0.287   0.278   0.280   0.276   0.282   0.286   0.293   0.279   0.280   0.280   0.268   0.270   0.281   0.274   0.268   0.268   0.275   0.274   0.275   0.283   0.284   0.274   0.271   0.278   0.276   0.274   0.271   0.276   0.279   0.282   0.278   0.275   0.278   0.281   0.286   0.286   0.285   0.275   0.278   0.281   0.281   0.280   0.281   0.273   0.282   0.280   0.282   0.285   0.286   0.278   0.283   0.271   0.264   0.281   0.281   0.279   0.275   0.272   0.278   0.270   0.282   0.272   0.283   0.285   0.284   0.283   0.275   0.280   0.287   0.284   0.290   0.287   0.301   0.289
    38.20    0.281   0.275   0.279   0.282   0.286   0.289   0.276   0.279   0.289   0.279   0.270   0.275   0.272   0.277   0.278   0.270   0.277   0.289   0.286   0.296   0.294   0.290   0.283   0.288   0.293   0.283   0.283   0.289   0.295   0.286   0.289   0.287   0.285   0.291   0.281   0.281   0.283   0.272   0.279   0.277   0.275   0.280   0.285   0.282   0.289   0.292   0.297   0.294   0.274   0.285   0.279   0.274   0.282   0.280   0.277   0.273   0.274   0.286   0.288   0.285   0.289   0.282   0.273   0.271   0.283   0.278   0.282   0.290   0.298   0.295   0.291   0.285   0.268   0.273   0.275   0.281   0.278   0.282   0.274   0.284   0.273   0.278   0.283   0.289   0.295   0.291   0.283   0.285   0.288   0.281   0.277   0.287   0.296   0.288   0.290   0.284   0.290   0.291   0.299   0.290   0.274   0.286   0.288   0.293   0.281   0.275   0.279   0.289   0.291   0.293   0.293   0.292   0.287   0.284   0.295   0.293   0.271   0.281   0.287   0.289   0.285   0.283   0.274   0.278   0.280   0.281   0.275   0.276   0.275   0.275   0.268   0.275   0.276   0.272   0.278   0.272   0.279   0.263   0.273   0.270   0.275   0.277   0.280   0.286   0.286   0.280   0.276   0.278   0.280   0.272   0.279   0.278   0.282   0.286   0.296   0.287   0.275   0.291   0.288   0.280   0.279   0.287   0.286   0.280   0.285   0.286   0.276   0.283   0.286   0.286   0.277   0.265   0.275   0.275   0.273   0.273   0.271   0.273   0.271   0.280   0.280   0.282   0.286   0.284   0.279   0.271   0.280   0.287   0.289   0.296   0.286   0.299   0.290
    28.90    0.276   0.274   0.283   0.287   0.282   0.284   0.280   0.268   0.279   0.278   0.269   0.270   0.279   0.278   0.279   0.275   0.272   0.285   0.295   0.294   0.291   0.294   0.289   0.285   0.280   0.273   0.280   0.283   0.295   0.278   0.291   0.281   0.284   0.278   0.286   0.287   0.285   0.274   0.275   0.278   0.273   0.274   0.288   0.293   0.287   0.290   0.288   0.292   0.279   0.276   0.273   0.277   0.278   0.279   0.271   0.284   0.282   0.302   0.299   0.294   0.287   0.284   0.277   0.276   0.285   0.282   0.293   0.299   0.299   0.295   0.299   0.287   0.281   0.279   0.283   0.285   0.280   0.287   0.283   0.286   0.281   0.276   0.285   0.299   0.284   0.284   0.279   0.275   0.276   0.278   0.276   0.282   0.286   0.287   0.288   0.285   0.291   0.289   0.275   0.279   0.285   0.282   0.285   0.286   0.282   0.281   0.283   0.276   0.286   0.287   0.282   0.288   0.289   0.301   0.300   0.284   0.279   0.281   0.277   0.291   0.282   0.283   0.283   0.286   0.275   0.279   0.280   0.284   0.287   0.276   0.278   0.276   0.277   0.284   0.280   0.277   0.272   0.269   0.272   0.277   0.275   0.276   0.284   0.281   0.274   0.278   0.276   0.285   0.287   0.284   0.287   0.276   0.271   0.280   0.288   0.290   0.293   0.296   0.286   0.277   0.286   0.289   0.291   0.276   0.285   0.297   0.285   0.285   0.292   0.282   0.279   0.278   0.275   0.277   0.265   0.272   0.275   0.279   0.274   0.271   0.272   0.270   0.276   0.276   0.272   0.277   0.281   0.279   0.291   0.285   0.292   0.288   0.283
    19.60    0.279   0.290   0.284   0.284   0.280   0.266   0.276   0.273   0.264   0.270   0.267   0.280   0.274   0.286   0.280   0.278   0.281   0.273   0.284   0.287   0.289   0.289   0.295   0.284   0.283   0.279   0.270   0.279   0.294   0.290   0.278   0.290   0.284   0.284   0.285   0.274   0.282   0.279   0.277   0.275   0.278   0.281   0.287   0.288   0.281   0.287   0.291   0.286   0.284   0.281   0.286   0.284   0.277   0.284   0.281   0.283   0.286   0.292   0.288   0.288   0.289   0.291   0.280   0.281   0.279   0.280   0.284   0.299   0.293   0.289   0.294   0.284   0.272   0.271   0.279   0.276   0.295   0.293   0.282   0.275   0.279   0.287   0.285   0.296   0.284   0.278   0.283   0.287   0.285   0.286   0.275   0.279   0.289   0.286   0.290   0.282   0.291   0.289   0.280   0.286   0.281   0.290   0.277   0.280   0.280   0.279   0.282   0.279   0.283   0.279   0.290   0.290   0.285   0.296   0.286   0.289   0.280   0.284   0.284   0.292   0.268   0.281   0.277   0.282   0.278   0.281   0.278   0.284   0.278   0.267   0.275   0.288   0.274   0.268   0.276   0.278   0.276   0.272   0.274   0.275   0.272   0.278   0.277   0.266   0.274   0.278   0.274   0.275   0.284   0.287   0.279   0.277   0.277   0.282   0.282   0.283   0.295   0.296   0.294   0.296   0.282   0.280   0.291   0.286   0.285   0.294   0.293   0.293   0.296   0.289   0.284   0.272   0.281   0.284   0.279   0.285   0.269   0.269   0.275   0.266   0.264   0.267   0.264   0.274   0.266   0.277   0.279   0.282   0.287   0.293   0.282   0.285   0.279
    10.30    0.277   0.283   0.289   0.285   0.281   0.272   0.268   0.266   0.267   0.274   0.279   0.284   0.288   0.282   0.275   0.269   0.279   0.284   0.289   0.292   0.291   0.285   0.285   0.282   0.281   0.282   0.279   0.280   0.285   0.284   0.282   0.290   0.288   0.291   0.287   0.276   0.279   0.271   0.267   0.280   0.287   0.277   0.288   0.289   0.294   0.291   0.293   0.284   0.285   0.290   0.294   0.290   0.278   0.282   0.285   0.290   0.289   0.284   0.288   0.281   0.286   0.293   0.285   0.278   0.288   0.294   0.290   0.288   0.287   0.289   0.285   0.277   0.272   0.269   0.271   0.272   0.285   0.288   0.286   0.279   0.280   0.283   0.286   0.297   0.293   0.279   0.285   0.284   0.281   0.288   0.285   0.276   0.275   0.277   0.278   0.289   0.289   0.287   0.279   0.285   0.273   0.264   0.274   0.271   0.276   0.273   0.281   0.281   0.278   0.274   0.290   0.298   0.296   0.288   0.291   0.301   0.300   0.297   0.286   0.280   0.279   0.282   0.275   0.281   0.276   0.270   0.275   0.277   0.280   0.282   0.277   0.272   0.278   0.276   0.279   0.274   0.273   0.272   0.276   0.272   0.272   0.266   0.281   0.272   0.267   0.270   0.270   0.283   0.282   0.284   0.269   0.270   0.276   0.281   0.278   0.286   0.295   0.298   0.293   0.281   0.282   0.276   0.273   0.281   0.285   0.284   0.303   0.299   0.300   0.291   0.288   0.289   0.278   0.289   0.286   0.271   0.274   0.274   0.281   0.271   0.275   0.268   0.263   0.270   0.271   0.269   0.274   0.279   0.290   0.295   0.278   0.291   0.285
     1.00    0.284   0.283   0.284   0.279   0.282   0.271   0.266   0.265   0.267   0.278   0.272   0.279   0.280   0.280   0.277   0.277   0.278   0.274   0.290   0.279   0.284   0.281   0.276   0.282   0.287   0.288   0.284   0.283   0.287   0.290   0.290   0.294   0.292   0.290   0.279   0.284   0.284   0.275   0.276   0.279   0.286   0.281   0.284   0.293   0.290   0.298   0.296   0.296   0.296   0.297   0.292   0.288   0.277   0.273   0.280   0.280   0.286   0.280   0.283   0.284   0.286   0.281   0.280   0.278   0.285   0.292   0.294   0.291   0.292   0.291   0.285   0.280   0.267   0.272   0.276   0.278   0.274   0.287   0.287   0.282   0.285   0.277   0.284   0.290   0.287   0.281   0.272   0.283   0.298   0.290   0.285   0.285   0.288   0.273   0.280   0.286   0.293   0.288   0.278   0.281   0.268   0.273   0.272   0.271   0.273   0.280   0.280   0.282   0.276   0.279   0.281   0.288   0.298   0.287   0.295   0.297   0.296   0.288   0.292   0.283   0.287   0.280   0.279   0.277   0.269   0.264   0.270   0.270   0.274   0.272   0.276   0.274   0.266   0.276   0.281   0.281   0.275   0.280   0.278   0.270   0.274   0.272   0.274   0.271   0.277   0.267   0.272   0.273   0.278   0.279   0.278   0.275   0.272   0.277   0.284   0.283   0.287   0.291   0.289   0.287   0.275   0.274   0.272   0.267   0.280   0.288   0.291   0.289   0.287   0.293   0.299   0.299   0.288   0.290   0.281   0.269   0.274   0.281   0.283   0.276   0.278   0.278   0.266   0.269   0.269   0.270   0.272   0.271   0.279   0.287   0.283   0.283   0.292

   Mean standard deviation across all grid points:
      u component:    0.563 m/s
      v component:    0.462 m/s
      w component:    0.283 m/s


U-component (X) statistics from the interpolated hub point:

   Mean =   9.7063 m/s
   TI   =   6.6348 %


Processing complete.  1.91456E+05 CPU seconds used.
