
This summary file was generated by TurbSim (from OpenFAST-v3.5.3) on 20-Apr-2025 at 12:48:34.


Runtime Options:

1341164796  Random seed #1
    RANLUX  Type of random number generator
         F  Output binary HH turbulence parameters?
         F  Output formatted turbulence parameters?
         F  Output AeroDyn HH files?
         T  Output AeroDyn FF files?
         F  Output BLADED FF files?
         F  Output tower data?
         F  Output HAWC FF files?
         F  Output formatted FF files?
         T  Output coherent turbulence time step file?
 0 -  NONE  IEC turbulence models scaled to exact specified standard deviation


Turbine/Model Specifications:

        37  Vertical grid-point matrix dimension
        35  Horizontal grid-point matrix dimension
     0.250  Time step [seconds]
   900.000  Analysis time [seconds]
   900.000  Usable output time [seconds]
    89.350  Hub height [m]
   167.400  Grid height [m]
   158.100  Grid width [m]
     0.000  Vertical flow angle [degrees]
     0.000  Horizontal flow angle [degrees]


Meteorological Boundary Conditions:

    TIMESR  User-input time series spectral model
       N/A  IEC standard
       N/A  IEC turbulence characteristic
       N/A  IEC turbulence type
       N/A  IEC Extreme Turbulence Model (ETM) "c" parameter [m/s]
       PL   Wind profile type
    90.000  Reference height [m]
    10.000  Reference wind speed [m/s]
       N/A  Jet height [m]
     0.120  Power law exponent
     0.030  Surface roughness length [m]


Non-IEC Meteorological Boundary Conditions:

    45.000  Site latitude [degrees]
     0.050  Gradient Richardson number
     0.480  Friction or shear velocity [m/s]
       N/A  Mixing layer depth [m]
       N/A  Mean hub u'w' Reynolds stress
       N/A  Mean hub u'v' Reynolds stress
       N/A  Mean hub v'w' Reynolds stress


Spatial Coherence Models:

       IEC  u-component coherence model
       IEC  v-component coherence model
       IEC  w-component coherence model
(   12.000, 0.353E-03)  u-component coherence parameters
(   12.000, 0.353E-03)  v-component coherence parameters
(   12.000, 0.353E-03)  w-component coherence parameters
       N/A  Coherence exponent


Coherent Turbulence Scaling Parameters:

.\EventData
            Name of the path containing the coherent turbulence data files
       les  Type of coherent turbulence data files
     0.500  Disturbance scale (ratio of wave height to rotor diameter)
     0.500  Fractional location of tower centerline from right
     1.000  Fractional location of hub height from the bottom of the dataset
    30.000  Minimum start time for coherent structures [seconds]


Profiles from User-Defined Time-Series Input:

  Height   Wind Speed   Horizontal Angle   Vertical Angle
   (m)        (m/s)          (deg)              (deg)    
  ------   ----------   ----------------   --------------
   94.00      10.00          -0.63                0.00


You have requested that the following file(s) be generated:

   /kfs3/scratch/agupta/Projects/RL_Incubator/FinalRuns_Veer/Seed4/./FFSim_Seed4/Cond00_v10.0_PL0.12_TI3.0/Case3_wdirp06/Seed_8/TurbSim/HighT1.bts (AeroDyn/TurbSim full-field wind file)


Turbulence Simulation Scaling Parameter Summary:

   Turbulence model used                            =  User-input time series
   Gradient Richardson number                       =    0.050
   Monin-Obukhov (M-O) z/L parameter                =    0.067
   Monin-Obukhov (M-O) length scale                 = 1340.250 m
   Mean wind speed at hub height                    =    9.991 m/s

   Wind profile type                                =  Power law
   Power law exponent                               =    0.120
   Mean shear across rotor disk                     =    0.019 (m/s)/m
   Assumed rotor diameter                           =  158.100 m
   Surface roughness length                         =    0.030 m

   Nyquist frequency of turbulent wind field        =    2.000 Hz

   Number of time steps in the FFT                  =     3600
   Number of time steps output                      =     3600
   Number of points simulated                       =     1296


Mean Flow Angles:

   Vertical   =   0.0 degrees
   Horizontal =   0.0 degrees

Mean Wind Speed Profile:

   Height    Wind Speed   Horizontal Angle  Vertical Angle  U-comp (X)   V-comp (Y)   W-comp (Z)
     (m)        (m/s)         (degrees)       (degrees)       (m/s)        (m/s)        (m/s)   
   ------    ----------   ----------------  --------------  ----------   ----------   ----------
    168.4       10.78            0.00            0.00         10.78         0.00         0.00
    163.7       10.74            0.00            0.00         10.74         0.00         0.00
    159.1       10.71            0.00            0.00         10.71         0.00         0.00
    154.4       10.67            0.00            0.00         10.67         0.00         0.00
    149.8       10.63            0.00            0.00         10.63         0.00         0.00
    145.1       10.59            0.00            0.00         10.59         0.00         0.00
    140.5       10.55            0.00            0.00         10.55         0.00         0.00
    135.8       10.51            0.00            0.00         10.51         0.00         0.00
    131.2       10.46            0.00            0.00         10.46         0.00         0.00
    126.5       10.42            0.00            0.00         10.42         0.00         0.00
    121.9       10.37            0.00            0.00         10.37         0.00         0.00
    117.2       10.32            0.00            0.00         10.32         0.00         0.00
    112.6       10.27            0.00            0.00         10.27         0.00         0.00
    107.9       10.22            0.00            0.00         10.22         0.00         0.00
    103.3       10.17            0.00            0.00         10.17         0.00         0.00
     98.6       10.11            0.00            0.00         10.11         0.00         0.00
     94.0       10.05            0.00            0.00         10.05         0.00         0.00
     89.3        9.99            0.00            0.00          9.99         0.00         0.00
     84.7        9.93            0.00            0.00          9.93         0.00         0.00
     80.0        9.86            0.00            0.00          9.86         0.00         0.00
     75.4        9.79            0.00            0.00          9.79         0.00         0.00
     70.7        9.72            0.00            0.00          9.72         0.00         0.00
     66.1        9.64            0.00            0.00          9.64         0.00         0.00
     61.4        9.55            0.00            0.00          9.55         0.00         0.00
     56.8        9.46            0.00            0.00          9.46         0.00         0.00
     52.1        9.37            0.00            0.00          9.37         0.00         0.00
     47.5        9.26            0.00            0.00          9.26         0.00         0.00
     42.8        9.15            0.00            0.00          9.15         0.00         0.00
     38.2        9.02            0.00            0.00          9.02         0.00         0.00
     33.5        8.88            0.00            0.00          8.88         0.00         0.00
     28.9        8.73            0.00            0.00          8.73         0.00         0.00
     24.2        8.54            0.00            0.00          8.54         0.00         0.00
     19.6        8.33            0.00            0.00          8.33         0.00         0.00
     14.9        8.06            0.00            0.00          8.06         0.00         0.00
     10.3        7.71            0.00            0.00          7.71         0.00         0.00
      5.6        7.17            0.00            0.00          7.17         0.00         0.00
      1.0        5.83            0.00            0.00          5.83         0.00         0.00


Harvested Random Seeds after Generation of the Random Numbers:

     65026800 K 1
            0 K 2


Hub-Height Simulated Turbulence Statistical Summary:

   Type of Wind        Min (m/s)   Mean (m/s)    Max (m/s)  Sigma (m/s)       TI (%)
   ----------------    ---------   ----------    ---------  -----------       ------
   Longitudinal (u)         9.14         9.99        10.89        0.279        2.790
   Lateral (v)             -0.84        -0.00         0.80        0.228        2.282
   Vertical (w)            -0.47         0.00         0.51        0.141        1.408
   U component              9.14         9.99        10.89        0.279        2.790
   V component             -0.84        -0.00         0.80        0.228        2.282
   W component             -0.47         0.00         0.51        0.141        1.408
   Horizontal (U&V)         9.15         9.99        10.89        0.279        2.794
   Total                    9.15         9.99        10.89        0.279        2.795

                       Min Reynolds     Mean Reynolds    Max Reynolds    Correlation
   Product             Stress (m/s)^2   Stress (m/s)^2   Stress (m/s)^2  Coefficient
   ----------------    --------------   --------------   --------------  -----------
   u'w'                     -0.205             0.001             0.296         0.019
   u'v'                     -0.369            -0.004             0.362        -0.057
   v'w'                     -0.247             0.004             0.292         0.113


   Friction Velocity (Ustar)  =      0.027 m/s
   Maximum Instantaneous TKE  =      0.479 (m/s)^2
   Maximum Instantaneous CTKE =      0.274 (m/s)^2


Grid Point Variance Summary:

   Y-coord  -79.05  -74.40  -69.75  -65.10  -60.45  -55.80  -51.15  -46.50  -41.85  -37.20  -32.55  -27.90  -23.25  -18.60  -13.95   -9.30   -4.65    0.00    4.65    9.30   13.95   18.60   23.25   27.90   32.55   37.20   41.85   46.50   51.15   55.80   60.45   65.10   69.75   74.40   79.05

   Height   Standard deviation at grid points for the u component:
   168.40    0.294   0.299   0.301   0.262   0.277   0.289   0.283   0.280   0.270   0.254   0.244   0.248   0.249   0.249   0.243   0.249   0.258   0.252   0.261   0.263   0.247   0.269   0.273   0.258   0.246   0.246   0.257   0.251   0.255   0.274   0.279   0.300   0.281   0.281   0.263
   163.75    0.286   0.293   0.283   0.272   0.293   0.290   0.276   0.269   0.275   0.257   0.245   0.239   0.243   0.239   0.245   0.251   0.240   0.249   0.260   0.267   0.271   0.277   0.273   0.254   0.246   0.255   0.269   0.244   0.265   0.263   0.287   0.289   0.309   0.304   0.290
   159.10    0.284   0.289   0.284   0.268   0.299   0.296   0.301   0.278   0.275   0.261   0.271   0.268   0.253   0.241   0.248   0.247   0.254   0.250   0.265   0.263   0.264   0.258   0.267   0.263   0.250   0.257   0.259   0.268   0.266   0.264   0.292   0.298   0.297   0.285   0.296
   154.45    0.300   0.275   0.274   0.271   0.286   0.286   0.280   0.270   0.271   0.271   0.257   0.264   0.268   0.259   0.263   0.263   0.261   0.248   0.263   0.281   0.277   0.273   0.262   0.268   0.259   0.271   0.283   0.294   0.304   0.281   0.295   0.288   0.293   0.270   0.286
   149.80    0.274   0.264   0.282   0.291   0.269   0.273   0.280   0.262   0.256   0.259   0.256   0.237   0.246   0.267   0.273   0.254   0.266   0.265   0.267   0.273   0.263   0.277   0.276   0.270   0.266   0.276   0.307   0.289   0.277   0.278   0.278   0.280   0.284   0.274   0.289
   145.15    0.274   0.276   0.285   0.288   0.263   0.253   0.260   0.260   0.268   0.257   0.252   0.246   0.243   0.261   0.269   0.260   0.252   0.261   0.260   0.254   0.246   0.259   0.272   0.276   0.283   0.298   0.331   0.302   0.319   0.302   0.303   0.280   0.292   0.278   0.301
   140.50    0.267   0.282   0.295   0.276   0.262   0.258   0.265   0.266   0.250   0.262   0.273   0.261   0.253   0.273   0.265   0.255   0.257   0.248   0.246   0.249   0.252   0.268   0.266   0.291   0.301   0.308   0.319   0.338   0.304   0.324   0.328   0.319   0.295   0.299   0.298
   135.85    0.273   0.287   0.295   0.278   0.280   0.288   0.259   0.248   0.273   0.255   0.254   0.259   0.271   0.269   0.253   0.242   0.247   0.235   0.252   0.245   0.265   0.280   0.290   0.286   0.301   0.297   0.301   0.317   0.318   0.317   0.291   0.313   0.320   0.308   0.302
   131.20    0.246   0.285   0.299   0.293   0.264   0.267   0.255   0.265   0.282   0.258   0.252   0.261   0.264   0.269   0.252   0.239   0.228   0.234   0.248   0.259   0.274   0.284   0.277   0.280   0.278   0.284   0.289   0.309   0.303   0.305   0.290   0.307   0.305   0.302   0.316
   126.55    0.267   0.270   0.294   0.291   0.291   0.282   0.270   0.274   0.271   0.250   0.237   0.233   0.250   0.262   0.246   0.228   0.221   0.228   0.260   0.284   0.282   0.275   0.267   0.271   0.279   0.279   0.289   0.288   0.288   0.300   0.307   0.296   0.293   0.315   0.324
   121.90    0.277   0.299   0.308   0.293   0.299   0.295   0.285   0.283   0.279   0.261   0.247   0.243   0.254   0.240   0.233   0.218   0.218   0.230   0.253   0.278   0.281   0.282   0.285   0.288   0.278   0.296   0.296   0.291   0.301   0.315   0.305   0.300   0.305   0.318   0.314
   117.25    0.283   0.293   0.306   0.299   0.286   0.284   0.282   0.281   0.295   0.296   0.289   0.258   0.265   0.237   0.239   0.234   0.228   0.224   0.257   0.289   0.287   0.292   0.299   0.295   0.291   0.297   0.309   0.307   0.305   0.299   0.296   0.300   0.298   0.309   0.332
   112.60    0.269   0.282   0.294   0.306   0.304   0.284   0.276   0.269   0.289   0.283   0.273   0.263   0.253   0.247   0.249   0.242   0.243   0.238   0.262   0.257   0.269   0.296   0.299   0.309   0.318   0.304   0.323   0.296   0.286   0.286   0.302   0.305   0.285   0.310   0.338
   107.95    0.275   0.290   0.293   0.283   0.293   0.286   0.270   0.258   0.276   0.280   0.279   0.261   0.260   0.250   0.241   0.228   0.250   0.258   0.268   0.269   0.270   0.286   0.304   0.319   0.331   0.332   0.323   0.299   0.307   0.296   0.287   0.277   0.288   0.313   0.329
   103.30    0.290   0.288   0.302   0.292   0.277   0.265   0.251   0.270   0.289   0.276   0.268   0.250   0.254   0.253   0.254   0.248   0.254   0.279   0.264   0.256   0.255   0.278   0.295   0.321   0.329   0.322   0.323   0.299   0.305   0.276   0.288   0.286   0.293   0.299   0.318
    98.65    0.322   0.316   0.308   0.285   0.302   0.275   0.286   0.284   0.284   0.270   0.249   0.247   0.243   0.243   0.238   0.247   0.263   0.274   0.277   0.274   0.273   0.285   0.309   0.307   0.317   0.334   0.326   0.324   0.308   0.283   0.298   0.298   0.298   0.291   0.312
    94.00    0.316   0.311   0.308   0.300   0.299   0.296   0.273   0.297   0.285   0.272   0.267   0.245   0.242   0.238   0.248   0.238   0.263   0.275   0.270   0.275   0.279   0.275   0.293   0.299   0.299   0.315   0.328   0.330   0.296   0.291   0.294   0.324   0.315   0.322   0.317
    89.35    0.301   0.310   0.301   0.292   0.284   0.304   0.317   0.300   0.285   0.292   0.277   0.247   0.237   0.243   0.260   0.268   0.278   0.279   0.281   0.256   0.265   0.294   0.308   0.304   0.295   0.319   0.330   0.316   0.317   0.307   0.300   0.330   0.324   0.322   0.335
    84.70    0.297   0.315   0.305   0.298   0.279   0.293   0.319   0.317   0.290   0.294   0.281   0.254   0.269   0.259   0.262   0.274   0.278   0.258   0.274   0.275   0.273   0.279   0.287   0.303   0.277   0.302   0.304   0.314   0.330   0.321   0.313   0.332   0.332   0.334   0.313
    80.05    0.283   0.315   0.306   0.312   0.282   0.320   0.336   0.335   0.304   0.308   0.295   0.299   0.279   0.253   0.255   0.259   0.269   0.267   0.264   0.275   0.280   0.275   0.295   0.306   0.304   0.287   0.317   0.344   0.346   0.341   0.325   0.318   0.323   0.333   0.338
    75.40    0.296   0.318   0.318   0.315   0.295   0.318   0.323   0.320   0.317   0.301   0.293   0.299   0.280   0.271   0.273   0.279   0.263   0.266   0.265   0.286   0.293   0.275   0.291   0.308   0.280   0.282   0.310   0.313   0.325   0.342   0.327   0.318   0.337   0.343   0.352
    70.75    0.298   0.311   0.334   0.331   0.307   0.313   0.320   0.302   0.308   0.292   0.292   0.291   0.278   0.288   0.273   0.268   0.281   0.281   0.273   0.289   0.272   0.292   0.271   0.283   0.275   0.285   0.311   0.321   0.331   0.325   0.326   0.317   0.342   0.338   0.351
    66.10    0.307   0.314   0.335   0.314   0.306   0.304   0.304   0.292   0.301   0.307   0.291   0.298   0.307   0.283   0.275   0.284   0.281   0.286   0.294   0.277   0.295   0.281   0.293   0.272   0.271   0.277   0.292   0.309   0.323   0.331   0.329   0.317   0.330   0.329   0.325
    61.45    0.315   0.322   0.335   0.333   0.314   0.302   0.293   0.295   0.286   0.325   0.316   0.309   0.321   0.309   0.314   0.312   0.309   0.313   0.285   0.281   0.294   0.282   0.292   0.291   0.276   0.305   0.313   0.319   0.315   0.328   0.315   0.319   0.333   0.335   0.325
    56.80    0.330   0.329   0.329   0.327   0.309   0.290   0.298   0.291   0.307   0.316   0.320   0.312   0.312   0.331   0.319   0.329   0.319   0.303   0.294   0.299   0.286   0.291   0.305   0.299   0.291   0.315   0.307   0.318   0.333   0.337   0.314   0.312   0.327   0.321   0.306
    52.15    0.308   0.314   0.328   0.310   0.293   0.304   0.302   0.295   0.298   0.320   0.322   0.315   0.316   0.339   0.352   0.353   0.352   0.330   0.302   0.318   0.304   0.303   0.312   0.311   0.300   0.330   0.312   0.321   0.323   0.323   0.338   0.318   0.324   0.331   0.296
    47.50    0.311   0.295   0.304   0.292   0.313   0.331   0.318   0.305   0.309   0.302   0.312   0.338   0.336   0.355   0.348   0.355   0.352   0.344   0.325   0.313   0.315   0.302   0.309   0.319   0.319   0.324   0.322   0.323   0.337   0.341   0.320   0.335   0.335   0.316   0.313
    42.85    0.309   0.304   0.305   0.299   0.311   0.313   0.324   0.327   0.321   0.319   0.319   0.311   0.318   0.347   0.351   0.364   0.356   0.333   0.339   0.337   0.319   0.303   0.310   0.320   0.336   0.320   0.332   0.320   0.341   0.323   0.309   0.317   0.344   0.341   0.318
    38.20    0.307   0.309   0.295   0.284   0.295   0.314   0.314   0.325   0.318   0.312   0.328   0.330   0.315   0.316   0.353   0.372   0.356   0.360   0.366   0.355   0.330   0.309   0.301   0.317   0.326   0.332   0.320   0.307   0.315   0.316   0.312   0.312   0.326   0.325   0.330
    33.55    0.299   0.309   0.289   0.283   0.286   0.302   0.307   0.316   0.316   0.329   0.333   0.331   0.334   0.346   0.352   0.366   0.356   0.373   0.353   0.355   0.353   0.343   0.305   0.325   0.329   0.315   0.312   0.297   0.297   0.300   0.329   0.336   0.319   0.335   0.317
    28.90    0.295   0.283   0.278   0.303   0.293   0.302   0.328   0.298   0.302   0.320   0.325   0.342   0.339   0.351   0.354   0.368   0.364   0.379   0.355   0.327   0.308   0.318   0.304   0.316   0.307   0.311   0.304   0.288   0.296   0.299   0.325   0.339   0.345   0.319   0.337
    24.25    0.308   0.300   0.291   0.312   0.316   0.324   0.303   0.304   0.292   0.299   0.314   0.354   0.355   0.367   0.384   0.363   0.361   0.374   0.358   0.317   0.323   0.319   0.316   0.298   0.287   0.294   0.299   0.304   0.295   0.317   0.322   0.321   0.318   0.332   0.328
    19.60    0.317   0.311   0.307   0.315   0.323   0.307   0.315   0.297   0.288   0.302   0.307   0.325   0.360   0.358   0.382   0.370   0.367   0.369   0.360   0.339   0.315   0.315   0.310   0.304   0.304   0.294   0.288   0.293   0.298   0.310   0.319   0.319   0.317   0.318   0.319
    14.95    0.293   0.299   0.319   0.298   0.304   0.325   0.319   0.317   0.296   0.312   0.292   0.312   0.345   0.351   0.362   0.347   0.350   0.355   0.345   0.324   0.298   0.302   0.302   0.299   0.289   0.295   0.284   0.300   0.294   0.294   0.310   0.315   0.316   0.319   0.294
    10.30    0.310   0.303   0.322   0.337   0.325   0.317   0.324   0.319   0.315   0.300   0.310   0.313   0.343   0.344   0.339   0.350   0.328   0.330   0.317   0.300   0.313   0.305   0.280   0.281   0.296   0.314   0.306   0.319   0.292   0.299   0.310   0.298   0.310   0.301   0.302
     5.65    0.319   0.323   0.324   0.327   0.321   0.309   0.336   0.341   0.333   0.324   0.312   0.321   0.317   0.332   0.336   0.331   0.341   0.320   0.334   0.312   0.299   0.300   0.276   0.278   0.284   0.309   0.303   0.312   0.302   0.282   0.298   0.302   0.288   0.290   0.281
     1.00    0.297   0.299   0.317   0.322   0.318   0.316   0.321   0.342   0.335   0.326   0.321   0.320   0.315   0.319   0.323   0.316   0.333   0.329   0.312   0.296   0.297   0.301   0.267   0.261   0.269   0.289   0.283   0.294   0.308   0.298   0.287   0.302   0.295   0.273   0.265

   Height   Standard deviation at grid points for the v component:
   168.40    0.247   0.252   0.255   0.250   0.239   0.235   0.232   0.234   0.225   0.236   0.223   0.232   0.232   0.226   0.220   0.217   0.225   0.232   0.242   0.231   0.233   0.219   0.214   0.235   0.251   0.249   0.231   0.243   0.245   0.256   0.244   0.237   0.238   0.235   0.235
   163.75    0.236   0.236   0.250   0.240   0.231   0.243   0.231   0.232   0.241   0.236   0.220   0.215   0.213   0.238   0.221   0.216   0.211   0.214   0.233   0.235   0.235   0.228   0.222   0.230   0.234   0.242   0.233   0.239   0.254   0.253   0.238   0.227   0.225   0.226   0.226
   159.10    0.225   0.230   0.223   0.236   0.247   0.244   0.236   0.241   0.237   0.221   0.216   0.227   0.234   0.244   0.225   0.208   0.209   0.211   0.225   0.224   0.224   0.217   0.205   0.208   0.214   0.223   0.226   0.235   0.247   0.245   0.257   0.233   0.237   0.227   0.238
   154.45    0.220   0.222   0.216   0.225   0.239   0.244   0.234   0.234   0.229   0.213   0.226   0.232   0.228   0.233   0.227   0.223   0.216   0.219   0.218   0.225   0.219   0.208   0.205   0.213   0.197   0.214   0.234   0.244   0.241   0.242   0.239   0.235   0.236   0.232   0.219
   149.80    0.223   0.227   0.223   0.229   0.226   0.234   0.229   0.233   0.215   0.229   0.243   0.228   0.223   0.214   0.233   0.227   0.222   0.231   0.218   0.218   0.204   0.209   0.206   0.206   0.211   0.224   0.226   0.241   0.249   0.233   0.234   0.242   0.240   0.232   0.238
   145.15    0.230   0.228   0.223   0.212   0.222   0.234   0.239   0.230   0.217   0.222   0.228   0.230   0.225   0.222   0.226   0.230   0.235   0.222   0.217   0.220   0.213   0.218   0.213   0.212   0.213   0.215   0.226   0.231   0.233   0.240   0.229   0.237   0.234   0.224   0.212
   140.50    0.232   0.235   0.239   0.229   0.226   0.235   0.234   0.220   0.222   0.219   0.213   0.233   0.225   0.227   0.228   0.240   0.230   0.231   0.230   0.228   0.227   0.217   0.221   0.213   0.226   0.231   0.226   0.244   0.234   0.224   0.225   0.232   0.241   0.238   0.225
   135.85    0.235   0.236   0.234   0.229   0.233   0.234   0.238   0.246   0.229   0.222   0.228   0.221   0.219   0.225   0.223   0.219   0.223   0.234   0.243   0.224   0.227   0.219   0.220   0.211   0.220   0.233   0.229   0.234   0.233   0.221   0.225   0.223   0.219   0.234   0.227
   131.20    0.238   0.228   0.224   0.224   0.216   0.225   0.231   0.227   0.233   0.233   0.236   0.225   0.229   0.223   0.224   0.221   0.227   0.244   0.239   0.242   0.242   0.228   0.228   0.225   0.224   0.226   0.239   0.249   0.244   0.232   0.220   0.219   0.212   0.222   0.237
   126.55    0.235   0.222   0.232   0.217   0.220   0.208   0.215   0.213   0.224   0.228   0.230   0.230   0.227   0.228   0.225   0.233   0.238   0.232   0.239   0.233   0.235   0.235   0.227   0.224   0.225   0.231   0.239   0.250   0.243   0.234   0.210   0.217   0.209   0.218   0.218
   121.90    0.229   0.217   0.220   0.218   0.207   0.204   0.207   0.217   0.219   0.232   0.239   0.242   0.230   0.234   0.226   0.232   0.226   0.223   0.229   0.240   0.236   0.231   0.230   0.222   0.229   0.220   0.226   0.235   0.244   0.228   0.223   0.217   0.212   0.211   0.230
   117.25    0.219   0.216   0.219   0.224   0.202   0.205   0.206   0.211   0.222   0.224   0.222   0.231   0.233   0.240   0.228   0.228   0.219   0.220   0.219   0.216   0.226   0.231   0.227   0.209   0.218   0.212   0.220   0.230   0.221   0.244   0.233   0.225   0.220   0.230   0.244
   112.60    0.224   0.218   0.212   0.221   0.214   0.210   0.219   0.236   0.226   0.219   0.230   0.229   0.241   0.242   0.237   0.226   0.230   0.235   0.236   0.239   0.228   0.223   0.217   0.212   0.218   0.211   0.224   0.231   0.237   0.242   0.239   0.226   0.217   0.228   0.240
   107.95    0.219   0.222   0.216   0.221   0.225   0.220   0.223   0.225   0.218   0.227   0.245   0.247   0.237   0.242   0.238   0.231   0.219   0.225   0.228   0.208   0.210   0.217   0.218   0.205   0.201   0.202   0.224   0.227   0.231   0.232   0.241   0.216   0.217   0.234   0.232
   103.30    0.221   0.229   0.211   0.211   0.223   0.232   0.234   0.238   0.226   0.222   0.229   0.242   0.239   0.249   0.238   0.225   0.229   0.234   0.230   0.216   0.209   0.201   0.199   0.193   0.200   0.210   0.220   0.221   0.230   0.243   0.225   0.231   0.237   0.239   0.226
    98.65    0.220   0.225   0.222   0.212   0.215   0.242   0.240   0.243   0.242   0.228   0.243   0.255   0.243   0.245   0.240   0.237   0.231   0.241   0.225   0.212   0.207   0.202   0.190   0.185   0.189   0.206   0.229   0.232   0.241   0.228   0.236   0.244   0.251   0.233   0.249
    94.00    0.237   0.223   0.214   0.215   0.222   0.241   0.240   0.244   0.230   0.243   0.245   0.253   0.249   0.255   0.243   0.235   0.240   0.240   0.219   0.211   0.206   0.201   0.207   0.197   0.201   0.204   0.218   0.216   0.228   0.226   0.236   0.227   0.239   0.242   0.232
    89.35    0.247   0.242   0.223   0.232   0.229   0.231   0.240   0.238   0.235   0.242   0.227   0.233   0.248   0.245   0.239   0.237   0.233   0.228   0.215   0.193   0.198   0.204   0.193   0.189   0.205   0.205   0.201   0.212   0.221   0.224   0.233   0.229   0.242   0.241   0.242
    84.70    0.248   0.240   0.241   0.231   0.226   0.230   0.241   0.244   0.248   0.232   0.226   0.228   0.235   0.234   0.237   0.238   0.223   0.215   0.194   0.213   0.211   0.201   0.191   0.197   0.200   0.205   0.207   0.203   0.216   0.235   0.237   0.244   0.237   0.237   0.235
    80.05    0.244   0.240   0.234   0.230   0.230   0.230   0.242   0.232   0.233   0.233   0.218   0.219   0.222   0.223   0.208   0.221   0.204   0.204   0.199   0.199   0.191   0.189   0.196   0.206   0.199   0.195   0.210   0.214   0.234   0.245   0.234   0.254   0.241   0.235   0.242
    75.40    0.234   0.216   0.227   0.220   0.237   0.247   0.239   0.232   0.227   0.213   0.214   0.228   0.229   0.220   0.219   0.223   0.221   0.213   0.204   0.199   0.197   0.189   0.195   0.202   0.207   0.211   0.230   0.236   0.225   0.243   0.255   0.262   0.252   0.232   0.225
    70.75    0.224   0.226   0.225   0.227   0.241   0.251   0.240   0.229   0.210   0.221   0.221   0.226   0.236   0.216   0.225   0.208   0.209   0.204   0.204   0.189   0.198   0.208   0.212   0.203   0.214   0.222   0.215   0.234   0.244   0.241   0.241   0.250   0.245   0.237   0.227
    66.10    0.223   0.222   0.228   0.237   0.235   0.243   0.229   0.229   0.209   0.215   0.205   0.219   0.213   0.216   0.227   0.220   0.204   0.200   0.194   0.206   0.211   0.203   0.210   0.207   0.212   0.209   0.215   0.233   0.248   0.236   0.233   0.231   0.252   0.248   0.251
    61.45    0.226   0.223   0.231   0.243   0.237   0.242   0.243   0.240   0.236   0.226   0.215   0.215   0.224   0.228   0.238   0.236   0.227   0.217   0.197   0.199   0.201   0.191   0.204   0.208   0.208   0.196   0.200   0.222   0.225   0.239   0.236   0.226   0.242   0.258   0.258
    56.80    0.233   0.228   0.237   0.230   0.241   0.242   0.242   0.245   0.250   0.243   0.238   0.241   0.238   0.245   0.244   0.231   0.228   0.205   0.211   0.217   0.200   0.197   0.205   0.199   0.202   0.202   0.200   0.219   0.225   0.240   0.234   0.249   0.244   0.253   0.248
    52.15    0.236   0.236   0.232   0.229   0.227   0.248   0.244   0.244   0.256   0.249   0.240   0.252   0.238   0.240   0.242   0.240   0.236   0.227   0.223   0.213   0.201   0.199   0.214   0.213   0.213   0.222   0.219   0.224   0.228   0.248   0.252   0.238   0.242   0.242   0.237
    47.50    0.248   0.234   0.230   0.228   0.237   0.248   0.251   0.251   0.250   0.253   0.245   0.244   0.244   0.247   0.236   0.242   0.244   0.234   0.228   0.216   0.237   0.225   0.216   0.218   0.225   0.228   0.235   0.234   0.236   0.245   0.251   0.249   0.233   0.244   0.247
    42.85    0.247   0.231   0.238   0.240   0.239   0.236   0.242   0.257   0.253   0.237   0.246   0.240   0.249   0.247   0.248   0.232   0.234   0.224   0.225   0.223   0.242   0.230   0.229   0.236   0.227   0.240   0.229   0.235   0.236   0.243   0.241   0.234   0.230   0.234   0.245
    38.20    0.246   0.245   0.244   0.242   0.225   0.237   0.244   0.250   0.251   0.250   0.244   0.241   0.249   0.244   0.235   0.235   0.229   0.227   0.224   0.237   0.236   0.240   0.239   0.240   0.229   0.232   0.244   0.254   0.245   0.244   0.234   0.232   0.224   0.235   0.243
    33.55    0.258   0.258   0.240   0.230   0.222   0.232   0.238   0.240   0.233   0.237   0.239   0.244   0.235   0.247   0.232   0.228   0.226   0.234   0.220   0.238   0.239   0.246   0.243   0.231   0.239   0.243   0.268   0.260   0.261   0.262   0.238   0.238   0.226   0.217   0.225
    28.90    0.243   0.240   0.227   0.223   0.226   0.229   0.237   0.228   0.232   0.231   0.237   0.235   0.230   0.231   0.225   0.220   0.236   0.256   0.252   0.251   0.249   0.255   0.243   0.250   0.241   0.248   0.258   0.264   0.255   0.256   0.249   0.236   0.234   0.224   0.228
    24.25    0.229   0.236   0.233   0.229   0.228   0.233   0.224   0.222   0.230   0.244   0.239   0.231   0.213   0.222   0.221   0.223   0.242   0.262   0.273   0.265   0.258   0.236   0.249   0.256   0.253   0.253   0.243   0.250   0.268   0.265   0.259   0.242   0.247   0.241   0.228
    19.60    0.236   0.234   0.227   0.230   0.231   0.228   0.212   0.222   0.222   0.232   0.228   0.222   0.222   0.228   0.234   0.250   0.259   0.270   0.271   0.268   0.273   0.255   0.249   0.251   0.260   0.252   0.251   0.253   0.272   0.272   0.254   0.249   0.246   0.243   0.242
    14.95    0.224   0.216   0.215   0.228   0.215   0.224   0.223   0.217   0.236   0.231   0.229   0.237   0.241   0.232   0.228   0.245   0.255   0.252   0.271   0.272   0.268   0.256   0.269   0.259   0.275   0.263   0.270   0.259   0.260   0.258   0.247   0.258   0.252   0.261   0.259
    10.30    0.230   0.220   0.228   0.227   0.225   0.229   0.224   0.240   0.235   0.223   0.236   0.234   0.227   0.229   0.236   0.244   0.257   0.259   0.258   0.272   0.279   0.279   0.266   0.257   0.266   0.258   0.257   0.262   0.263   0.254   0.247   0.265   0.271   0.257   0.259
     5.65    0.251   0.227   0.229   0.224   0.238   0.241   0.221   0.234   0.241   0.237   0.243   0.242   0.227   0.229   0.254   0.254   0.256   0.260   0.257   0.262   0.280   0.280   0.288   0.268   0.250   0.273   0.256   0.259   0.257   0.245   0.249   0.269   0.266   0.262   0.255
     1.00    0.242   0.236   0.235   0.240   0.250   0.254   0.248   0.225   0.242   0.237   0.229   0.226   0.221   0.235   0.238   0.247   0.254   0.262   0.266   0.263   0.274   0.277   0.282   0.268   0.270   0.275   0.272   0.265   0.253   0.253   0.252   0.269   0.270   0.266   0.257

   Height   Standard deviation at grid points for the w component:
   168.40    0.153   0.158   0.162   0.153   0.147   0.145   0.151   0.146   0.144   0.155   0.156   0.149   0.151   0.155   0.154   0.155   0.152   0.151   0.146   0.142   0.149   0.143   0.140   0.140   0.151   0.147   0.147   0.149   0.147   0.141   0.143   0.151   0.153   0.158   0.155
   163.75    0.154   0.156   0.155   0.155   0.150   0.148   0.148   0.148   0.145   0.151   0.156   0.158   0.153   0.154   0.154   0.156   0.156   0.149   0.143   0.145   0.148   0.140   0.141   0.142   0.142   0.143   0.146   0.144   0.154   0.148   0.143   0.145   0.144   0.146   0.149
   159.10    0.152   0.149   0.153   0.152   0.148   0.148   0.153   0.147   0.147   0.149   0.155   0.155   0.156   0.158   0.155   0.151   0.152   0.146   0.150   0.143   0.139   0.138   0.138   0.138   0.141   0.142   0.142   0.143   0.151   0.148   0.145   0.149   0.147   0.149   0.137
   154.45    0.155   0.155   0.156   0.159   0.152   0.148   0.150   0.147   0.145   0.140   0.151   0.152   0.157   0.159   0.147   0.151   0.152   0.144   0.141   0.141   0.143   0.137   0.137   0.139   0.140   0.143   0.144   0.140   0.146   0.143   0.144   0.148   0.142   0.145   0.143
   149.80    0.161   0.161   0.158   0.158   0.154   0.154   0.152   0.142   0.142   0.144   0.150   0.150   0.154   0.155   0.152   0.150   0.148   0.142   0.141   0.138   0.139   0.137   0.138   0.142   0.142   0.145   0.147   0.147   0.146   0.147   0.149   0.147   0.143   0.144   0.150
   145.15    0.158   0.161   0.160   0.157   0.155   0.157   0.156   0.153   0.146   0.153   0.147   0.151   0.152   0.148   0.150   0.150   0.151   0.144   0.141   0.137   0.143   0.142   0.139   0.144   0.147   0.144   0.147   0.146   0.146   0.147   0.144   0.144   0.145   0.148   0.148
   140.50    0.160   0.160   0.162   0.157   0.163   0.162   0.161   0.150   0.152   0.156   0.153   0.153   0.153   0.148   0.144   0.148   0.147   0.143   0.138   0.138   0.141   0.139   0.142   0.142   0.140   0.139   0.145   0.144   0.140   0.144   0.143   0.146   0.143   0.149   0.145
   135.85    0.161   0.158   0.157   0.163   0.168   0.168   0.166   0.155   0.150   0.151   0.156   0.156   0.154   0.150   0.147   0.143   0.142   0.141   0.134   0.138   0.143   0.141   0.145   0.141   0.145   0.143   0.143   0.147   0.149   0.146   0.150   0.141   0.142   0.143   0.143
   131.20    0.161   0.160   0.160   0.162   0.164   0.166   0.162   0.162   0.152   0.151   0.152   0.151   0.151   0.145   0.141   0.141   0.143   0.141   0.141   0.145   0.143   0.139   0.143   0.140   0.135   0.137   0.142   0.140   0.150   0.149   0.149   0.149   0.147   0.140   0.140
   126.55    0.171   0.160   0.162   0.167   0.163   0.168   0.166   0.162   0.160   0.157   0.158   0.154   0.151   0.147   0.141   0.140   0.140   0.144   0.144   0.146   0.144   0.148   0.144   0.142   0.143   0.145   0.148   0.152   0.149   0.151   0.144   0.142   0.140   0.141   0.141
   121.90    0.168   0.160   0.162   0.162   0.166   0.173   0.170   0.165   0.156   0.161   0.159   0.157   0.149   0.148   0.140   0.146   0.146   0.142   0.142   0.143   0.144   0.147   0.143   0.141   0.142   0.149   0.150   0.148   0.152   0.151   0.147   0.141   0.138   0.140   0.139
   117.25    0.164   0.162   0.165   0.159   0.162   0.164   0.165   0.163   0.158   0.163   0.157   0.153   0.155   0.151   0.148   0.144   0.147   0.137   0.141   0.142   0.144   0.140   0.139   0.138   0.144   0.148   0.146   0.149   0.149   0.148   0.144   0.143   0.139   0.137   0.132
   112.60    0.165   0.161   0.164   0.163   0.157   0.163   0.164   0.169   0.160   0.158   0.152   0.153   0.151   0.153   0.151   0.145   0.146   0.148   0.146   0.144   0.142   0.141   0.140   0.138   0.141   0.141   0.143   0.145   0.146   0.145   0.142   0.146   0.135   0.135   0.134
   107.95    0.164   0.167   0.166   0.159   0.154   0.161   0.165   0.168   0.160   0.157   0.155   0.152   0.145   0.144   0.148   0.150   0.149   0.142   0.139   0.144   0.139   0.138   0.138   0.137   0.141   0.138   0.139   0.144   0.138   0.135   0.141   0.143   0.140   0.128   0.132
   103.30    0.163   0.159   0.159   0.156   0.157   0.157   0.161   0.157   0.157   0.153   0.151   0.150   0.144   0.143   0.141   0.145   0.147   0.146   0.141   0.139   0.135   0.136   0.139   0.135   0.133   0.137   0.143   0.143   0.142   0.136   0.137   0.136   0.137   0.132   0.130
    98.65    0.158   0.158   0.155   0.156   0.160   0.157   0.157   0.158   0.153   0.148   0.148   0.148   0.152   0.146   0.141   0.147   0.146   0.144   0.147   0.138   0.136   0.137   0.140   0.140   0.140   0.135   0.139   0.142   0.146   0.139   0.137   0.137   0.136   0.134   0.134
    94.00    0.155   0.155   0.153   0.154   0.157   0.156   0.153   0.154   0.149   0.148   0.148   0.147   0.147   0.142   0.138   0.143   0.144   0.140   0.147   0.149   0.146   0.143   0.140   0.142   0.136   0.142   0.141   0.140   0.147   0.144   0.138   0.135   0.133   0.133   0.138
    89.35    0.160   0.157   0.156   0.154   0.158   0.154   0.155   0.158   0.150   0.145   0.146   0.144   0.146   0.140   0.142   0.142   0.142   0.141   0.144   0.148   0.144   0.145   0.146   0.138   0.141   0.139   0.141   0.137   0.147   0.145   0.142   0.139   0.133   0.134   0.138
    84.70    0.155   0.153   0.154   0.149   0.156   0.149   0.148   0.150   0.147   0.147   0.147   0.145   0.143   0.141   0.144   0.152   0.151   0.150   0.148   0.143   0.146   0.145   0.145   0.143   0.143   0.140   0.140   0.140   0.147   0.145   0.144   0.144   0.135   0.132   0.133
    80.05    0.152   0.155   0.153   0.152   0.152   0.149   0.143   0.146   0.143   0.141   0.145   0.143   0.141   0.144   0.144   0.147   0.145   0.150   0.149   0.149   0.144   0.148   0.143   0.143   0.138   0.141   0.141   0.138   0.144   0.148   0.143   0.142   0.139   0.136   0.132
    75.40    0.150   0.152   0.150   0.149   0.144   0.140   0.141   0.139   0.136   0.144   0.143   0.143   0.140   0.144   0.151   0.145   0.143   0.146   0.152   0.150   0.152   0.147   0.150   0.151   0.142   0.140   0.147   0.147   0.145   0.147   0.143   0.142   0.140   0.141   0.142
    70.75    0.141   0.143   0.143   0.141   0.143   0.142   0.142   0.144   0.146   0.146   0.143   0.140   0.139   0.142   0.143   0.144   0.141   0.145   0.146   0.150   0.149   0.149   0.151   0.148   0.141   0.144   0.148   0.142   0.145   0.144   0.140   0.137   0.140   0.140   0.137
    66.10    0.143   0.141   0.140   0.146   0.146   0.140   0.140   0.145   0.149   0.147   0.142   0.142   0.143   0.138   0.141   0.142   0.140   0.146   0.156   0.154   0.150   0.147   0.147   0.143   0.138   0.142   0.143   0.138   0.139   0.140   0.136   0.140   0.143   0.142   0.144
    61.45    0.143   0.141   0.142   0.141   0.143   0.142   0.145   0.147   0.154   0.156   0.146   0.147   0.141   0.142   0.146   0.146   0.145   0.147   0.149   0.152   0.143   0.143   0.141   0.140   0.138   0.135   0.139   0.140   0.142   0.137   0.138   0.140   0.138   0.142   0.147
    56.80    0.139   0.141   0.146   0.144   0.145   0.141   0.145   0.148   0.152   0.152   0.147   0.143   0.142   0.139   0.144   0.148   0.141   0.150   0.151   0.154   0.145   0.143   0.138   0.136   0.135   0.132   0.134   0.135   0.143   0.143   0.143   0.142   0.145   0.144   0.147
    52.15    0.141   0.148   0.148   0.144   0.146   0.147   0.150   0.149   0.154   0.149   0.145   0.142   0.143   0.140   0.142   0.149   0.145   0.144   0.148   0.151   0.147   0.142   0.139   0.134   0.136   0.137   0.141   0.139   0.141   0.140   0.144   0.147   0.151   0.152   0.147
    47.50    0.144   0.149   0.147   0.146   0.146   0.146   0.144   0.148   0.143   0.152   0.147   0.142   0.142   0.140   0.138   0.149   0.144   0.148   0.147   0.144   0.142   0.142   0.137   0.138   0.133   0.141   0.139   0.139   0.144   0.143   0.147   0.152   0.152   0.152   0.151
    42.85    0.146   0.142   0.145   0.143   0.148   0.143   0.145   0.149   0.146   0.146   0.143   0.142   0.144   0.143   0.143   0.147   0.141   0.143   0.141   0.144   0.138   0.142   0.142   0.139   0.137   0.142   0.149   0.142   0.146   0.146   0.147   0.152   0.151   0.149   0.150
    38.20    0.148   0.144   0.147   0.140   0.142   0.147   0.144   0.147   0.142   0.145   0.144   0.140   0.144   0.143   0.141   0.141   0.139   0.140   0.140   0.142   0.142   0.143   0.143   0.142   0.142   0.143   0.147   0.142   0.150   0.149   0.152   0.148   0.150   0.148   0.148
    33.55    0.149   0.141   0.141   0.141   0.137   0.143   0.143   0.143   0.138   0.136   0.137   0.138   0.139   0.140   0.145   0.144   0.140   0.140   0.142   0.139   0.143   0.146   0.149   0.149   0.144   0.143   0.145   0.146   0.145   0.148   0.147   0.147   0.152   0.144   0.146
    28.90    0.147   0.145   0.141   0.135   0.139   0.142   0.143   0.138   0.135   0.135   0.137   0.142   0.140   0.135   0.138   0.146   0.141   0.144   0.142   0.147   0.142   0.149   0.147   0.144   0.146   0.143   0.143   0.142   0.146   0.151   0.149   0.146   0.145   0.144   0.147
    24.25    0.142   0.142   0.140   0.137   0.138   0.140   0.144   0.140   0.139   0.140   0.138   0.142   0.145   0.141   0.142   0.140   0.145   0.148   0.148   0.149   0.146   0.143   0.145   0.145   0.142   0.144   0.145   0.142   0.144   0.152   0.150   0.141   0.140   0.144   0.146
    19.60    0.145   0.141   0.145   0.143   0.142   0.141   0.141   0.140   0.145   0.140   0.138   0.147   0.147   0.143   0.145   0.142   0.143   0.149   0.149   0.147   0.141   0.147   0.146   0.145   0.148   0.143   0.139   0.140   0.145   0.146   0.147   0.142   0.141   0.147   0.148
    14.95    0.145   0.139   0.145   0.141   0.139   0.138   0.142   0.143   0.142   0.141   0.146   0.146   0.149   0.149   0.149   0.145   0.145   0.152   0.149   0.149   0.141   0.145   0.147   0.153   0.144   0.140   0.146   0.147   0.144   0.147   0.153   0.150   0.151   0.149   0.151
    10.30    0.148   0.145   0.143   0.146   0.143   0.141   0.147   0.149   0.149   0.146   0.146   0.146   0.150   0.149   0.149   0.150   0.144   0.150   0.153   0.143   0.147   0.146   0.151   0.152   0.148   0.149   0.150   0.149   0.147   0.147   0.148   0.153   0.153   0.150   0.143
     5.65    0.145   0.143   0.143   0.139   0.139   0.141   0.143   0.150   0.151   0.150   0.146   0.150   0.150   0.154   0.152   0.146   0.144   0.149   0.149   0.144   0.143   0.146   0.146   0.151   0.149   0.150   0.147   0.152   0.143   0.144   0.144   0.146   0.146   0.148   0.144
     1.00    0.145   0.144   0.139   0.139   0.142   0.147   0.142   0.148   0.151   0.154   0.158   0.155   0.152   0.159   0.157   0.149   0.146   0.145   0.147   0.147   0.146   0.146   0.147   0.146   0.145   0.156   0.152   0.156   0.148   0.144   0.142   0.152   0.146   0.152   0.152

   Mean standard deviation across all grid points:
      u component:    0.296 m/s
      v component:    0.232 m/s
      w component:    0.146 m/s


U-component (X) statistics from the interpolated hub point:

   Mean =   9.9913 m/s
   TI   =   2.7904 %


Processing complete.  5888 CPU seconds used.
