
This summary file was generated by TurbSim (from OpenFAST-v3.5.3) on 19-Apr-2025 at 23:46:20.


Runtime Options:

**********  Random seed #1
    RANLUX  Type of random number generator
         F  Output binary HH turbulence parameters?
         F  Output formatted turbulence parameters?
         F  Output AeroDyn HH files?
         T  Output AeroDyn FF files?
         F  Output BLADED FF files?
         F  Output tower data?
         F  Output HAWC FF files?
         F  Output formatted FF files?
         T  Output coherent turbulence time step file?
 0 -  NONE  IEC turbulence models scaled to exact specified standard deviation


Turbine/Model Specifications:

        39  Vertical grid-point matrix dimension
       193  Horizontal grid-point matrix dimension
     0.250  Time step [seconds]
   900.000  Analysis time [seconds]
   900.000  Usable output time [seconds]
   177.700  Hub height [m]
   353.400  Grid height [m]
  1785.600  Grid width [m]
     0.000  Vertical flow angle [degrees]
     0.000  Horizontal flow angle [degrees]


Meteorological Boundary Conditions:

    IECKAI  IEC Kaimal spectral model
         1  IEC standard: IEC 61400-1 Ed. 3: 2005
     6.000  Percent turbulence intensity, IEC 61400-1 Ed. 3: 2005
       NTM  IEC Normal Turbulence Model
       N/A  IEC Extreme Turbulence Model (ETM) "c" parameter [m/s]
       USR  Wind profile type
    90.000  Reference height [m]
       N/A  Reference wind speed [m/s]
       N/A  Jet height [m]
       N/A  Power law exponent
     0.030  Surface roughness length [m]


Non-IEC Meteorological Boundary Conditions:

       N/A  Site latitude [degrees]
       N/A  Gradient Richardson number
       N/A  Friction or shear velocity [m/s]
       N/A  Mixing layer depth [m]
       N/A  Mean hub u'w' Reynolds stress
       N/A  Mean hub u'v' Reynolds stress
       N/A  Mean hub v'w' Reynolds stress


Spatial Coherence Models:

       IEC  u-component coherence model
       IEC  v-component coherence model
       IEC  w-component coherence model
(   12.000, 0.353E-03)  u-component coherence parameters
(   12.000, 0.353E-03)  v-component coherence parameters
(   12.000, 0.353E-03)  w-component coherence parameters
       N/A  Coherence exponent


User-Defined Profiles:

  Height   Wind Speed   Horizontal Angle
   (m)        (m/s)          (deg)      
  ------   ----------   ----------------
  353.40      10.00         318.19
  334.80      10.00         321.14
  316.20      10.00         324.10
  297.60      10.00         327.05
  279.00      10.00         330.00
  260.40      10.00         332.95
  241.80      10.00         335.90
  223.20      10.00         338.86
  204.60      10.00         341.81
  186.00      10.00         344.76
  167.40      10.00         347.71
  148.80      10.00         350.67
  130.20      10.00         353.62
  111.60      10.00         356.57
   93.00      10.00         359.52
   74.40      10.00           2.48
   55.80      10.00           5.43
   37.20      10.00           8.38
   18.60      10.00          11.33
    0.00      10.00          14.29


You have requested that the following file(s) be generated:

   /kfs3/scratch/agupta/Projects/RL_Incubator/FinalRuns_Veer/Seed4/./FFSim_Seed4/Cond00_v10.0_PL0.12_TI6.0/Seed_7/Low.bts (AeroDyn/TurbSim full-field wind file)


Turbulence Simulation Scaling Parameter Summary:

   Turbulence model used                            =  IEC Kaimal
   Turbulence characteristic                        =  User-specified
   IEC standard                                     =  IEC 61400-1 Ed. 3: 2005
   Mean wind speed at hub height                    =   10.000 m/s
   Characteristic value of standard deviation       =    0.600 m/s
   Turbulence scale                                 =   42.000 m
   u-component integral scale                       =  340.200 m
   Coherency scale                                  =  340.200 m
   Characteristic value of hub turbulence intensity =    6.000%
   Gradient Richardson number                       =    0.000

   Wind profile type                                =  Linear interpolation of user-defined profile
   Equivalent power law exponent (upper rotor disk) =    0.000
   Mean shear across rotor disk                     =    0.000 (m/s)/m
   Assumed rotor diameter                           =  353.400 m
   Surface roughness length                         =    0.030 m

   Nyquist frequency of turbulent wind field        =    2.000 Hz

   Number of time steps in the FFT                  =     3600
   Number of time steps output                      =     3600
   Number of points simulated                       =     7527


Mean Flow Angles:

   Vertical   =   0.0 degrees
   Horizontal =   0.0 degrees

Mean Wind Speed Profile:

   Height    Wind Speed   Horizontal Angle  Vertical Angle  U-comp (X)   V-comp (Y)   W-comp (Z)
     (m)        (m/s)         (degrees)       (degrees)       (m/s)        (m/s)        (m/s)   
   ------    ----------   ----------------  --------------  ----------   ----------   ----------
    354.4       10.00          318.19            0.00          7.45        -6.67         0.00
    345.1       10.00          319.51            0.00          7.60        -6.49         0.00
    335.8       10.00          320.98            0.00          7.77        -6.30         0.00
    326.5       10.00          322.46            0.00          7.93        -6.09         0.00
    317.2       10.00          323.94            0.00          8.08        -5.89         0.00
    307.9       10.00          325.41            0.00          8.23        -5.68         0.00
    298.6       10.00          326.89            0.00          8.38        -5.46         0.00
    289.3       10.00          328.37            0.00          8.51        -5.25         0.00
    280.0       10.00          329.84            0.00          8.65        -5.02         0.00
    270.7       10.00          331.32            0.00          8.77        -4.80         0.00
    261.4       10.00          332.79            0.00          8.89        -4.57         0.00
    252.1       10.00          334.27            0.00          9.01        -4.34         0.00
    242.8       10.00          335.75            0.00          9.12        -4.11         0.00
    233.5       10.00          337.22            0.00          9.22        -3.87         0.00
    224.2       10.00          338.70            0.00          9.32        -3.63         0.00
    214.9       10.00          340.17            0.00          9.41        -3.39         0.00
    205.6       10.00          341.65            0.00          9.49        -3.15         0.00
    196.3       10.00          343.13            0.00          9.57        -2.90         0.00
    187.0       10.00          344.60            0.00          9.64        -2.66         0.00
    177.7       10.00          346.08            0.00          9.71        -2.41         0.00
    168.4       10.00          347.56            0.00          9.77        -2.15         0.00
    159.1       10.00          349.03            0.00          9.82        -1.90         0.00
    149.8       10.00          350.51            0.00          9.86        -1.65         0.00
    140.5       10.00          351.98            0.00          9.90        -1.39         0.00
    131.2       10.00          353.46            0.00          9.93        -1.14         0.00
    121.9       10.00          354.94            0.00          9.96        -0.88         0.00
    112.6       10.00          356.41            0.00          9.98        -0.63         0.00
    103.3       10.00          357.89            0.00          9.99        -0.37         0.00
     94.0       10.00          359.37            0.00         10.00        -0.11         0.00
     84.7       10.00          360.84            0.00         10.00         0.15         0.00
     75.4       10.00          362.32            0.00          9.99         0.40         0.00
     66.1       10.00            3.79            0.00          9.98         0.66         0.00
     56.8       10.00            5.27            0.00          9.96         0.92         0.00
     47.5       10.00            6.75            0.00          9.93         1.17         0.00
     38.2       10.00            8.22            0.00          9.90         1.43         0.00
     28.9       10.00            9.70            0.00          9.86         1.68         0.00
     19.6       10.00           11.17            0.00          9.81         1.94         0.00
     10.3       10.00           12.65            0.00          9.76         2.19         0.00
      1.0       10.00           14.13            0.00          9.70         2.44         0.00


Harvested Random Seeds after Generation of the Random Numbers:

    377667225 K 1
            0 K 2


Hub-Height Simulated Turbulence Statistical Summary:

   Type of Wind        Min (m/s)   Mean (m/s)    Max (m/s)  Sigma (m/s)       TI (%)
   ----------------    ---------   ----------    ---------  -----------       ------
   Longitudinal (u)         8.08        10.00        11.99        0.584        5.844
   Lateral (v)             -1.75        -0.00         1.71        0.490        4.901
   Vertical (w)            -0.99         0.00         0.94        0.282        2.820
   U component              7.98         9.71        11.73        0.563        5.803
   V component             -4.21        -2.41        -0.86        0.514        5.299
   W component             -0.99         0.00         0.94        0.282        2.906
   Horizontal (U&V)         8.10        10.01        12.00        0.584        5.834
   Total                    8.10        10.02        12.00        0.584        5.828

                       Min Reynolds     Mean Reynolds    Max Reynolds    Correlation
   Product             Stress (m/s)^2   Stress (m/s)^2   Stress (m/s)^2  Coefficient
   ----------------    --------------   --------------   --------------  -----------
   u'w'                     -1.169            -0.008             1.001        -0.051
   u'v'                     -1.565            -0.039             1.237        -0.138
   v'w'                     -0.737            -0.003             0.746        -0.018


   Friction Velocity (Ustar)  =      0.091 m/s
   Maximum Instantaneous TKE  =      2.074 (m/s)^2
   Maximum Instantaneous CTKE =      0.815 (m/s)^2


Grid Point Variance Summary:

   Y-coord -892.80 -883.50 -874.20 -864.90 -855.60 -846.30 -837.00 -827.70 -818.40 -809.10 -799.80 -790.50 -781.20 -771.90 -762.60 -753.30 -744.00 -734.70 -725.40 -716.10 -706.80 -697.50 -688.20 -678.90 -669.60 -660.30 -651.00 -641.70 -632.40 -623.10 -613.80 -604.50 -595.20 -585.90 -576.60 -567.30 -558.00 -548.70 -539.40 -530.10 -520.80 -511.50 -502.20 -492.90 -483.60 -474.30 -465.00 -455.70 -446.40 -437.10 -427.80 -418.50 -409.20 -399.90 -390.60 -381.30 -372.00 -362.70 -353.40 -344.10 -334.80 -325.50 -316.20 -306.90 -297.60 -288.30 -279.00 -269.70 -260.40 -251.10 -241.80 -232.50 -223.20 -213.90 -204.60 -195.30 -186.00 -176.70 -167.40 -158.10 -148.80 -139.50 -130.20 -120.90 -111.60 -102.30  -93.00  -83.70  -74.40  -65.10  -55.80  -46.50  -37.20  -27.90  -18.60   -9.30    0.00    9.30   18.60   27.90   37.20   46.50   55.80   65.10   74.40   83.70   93.00  102.30  111.60  120.90  130.20  139.50  148.80  158.10  167.40  176.70  186.00  195.30  204.60  213.90  223.20  232.50  241.80  251.10  260.40  269.70  279.00  288.30  297.60  306.90  316.20  325.50  334.80  344.10  353.40  362.70  372.00  381.30  390.60  399.90  409.20  418.50  427.80  437.10  446.40  455.70  465.00  474.30  483.60  492.90  502.20  511.50  520.80  530.10  539.40  548.70  558.00  567.30  576.60  585.90  595.20  604.50  613.80  623.10  632.40  641.70  651.00  660.30  669.60  678.90  688.20  697.50  706.80  716.10  725.40  734.70  744.00  753.30  762.60  771.90  781.20  790.50  799.80  809.10  818.40  827.70  837.00  846.30  855.60  864.90  874.20  883.50  892.80

   Height   Standard deviation at grid points for the u component:
   354.40    0.500   0.479   0.478   0.509   0.524   0.552   0.569   0.594   0.583   0.557   0.548   0.518   0.523   0.557   0.580   0.566   0.592   0.555   0.545   0.552   0.564   0.573   0.573   0.597   0.557   0.554   0.541   0.537   0.561   0.550   0.564   0.593   0.566   0.528   0.564   0.542   0.556   0.584   0.564   0.525   0.550   0.499   0.507   0.531   0.495   0.521   0.551   0.593   0.543   0.545   0.555   0.518   0.499   0.485   0.490   0.504   0.512   0.484   0.477   0.468   0.487   0.491   0.520   0.528   0.573   0.539   0.532   0.525   0.571   0.562   0.556   0.570   0.624   0.554   0.561   0.569   0.589   0.593   0.561   0.557   0.539   0.550   0.551   0.507   0.524   0.530   0.574   0.569   0.549   0.534   0.554   0.606   0.575   0.599   0.561   0.547   0.613   0.607   0.647   0.640   0.625   0.633   0.634   0.585   0.562   0.536   0.484   0.520   0.521   0.538   0.568   0.577   0.559   0.565   0.554   0.540   0.568   0.558   0.518   0.472   0.517   0.516   0.473   0.453   0.507   0.477   0.454   0.508   0.511   0.542   0.566   0.594   0.619   0.561   0.588   0.546   0.522   0.526   0.536   0.522   0.536   0.541   0.499   0.510   0.502   0.535   0.493   0.517   0.503   0.433   0.457   0.446   0.463   0.457   0.480   0.497   0.528   0.503   0.502   0.502   0.472   0.448   0.459   0.498   0.523   0.520   0.519   0.516   0.520   0.544   0.543   0.535   0.517   0.567   0.624   0.636   0.648   0.634   0.608   0.622   0.675   0.655   0.646   0.661   0.704   0.708   0.706   0.654   0.691   0.645   0.637   0.623   0.638
   345.10    0.505   0.530   0.511   0.548   0.580   0.605   0.556   0.582   0.572   0.565   0.552   0.531   0.505   0.562   0.533   0.523   0.543   0.531   0.522   0.533   0.578   0.561   0.600   0.622   0.585   0.540   0.499   0.542   0.552   0.549   0.559   0.568   0.553   0.524   0.562   0.565   0.560   0.587   0.587   0.537   0.516   0.493   0.502   0.543   0.524   0.541   0.575   0.546   0.555   0.553   0.520   0.512   0.485   0.493   0.534   0.536   0.508   0.499   0.533   0.510   0.510   0.515   0.504   0.493   0.522   0.540   0.538   0.537   0.528   0.583   0.565   0.569   0.544   0.577   0.593   0.576   0.609   0.545   0.516   0.517   0.510   0.550   0.555   0.546   0.537   0.528   0.587   0.566   0.554   0.549   0.591   0.596   0.617   0.568   0.543   0.585   0.607   0.625   0.637   0.612   0.602   0.640   0.648   0.623   0.579   0.601   0.549   0.530   0.519   0.571   0.591   0.608   0.571   0.565   0.556   0.569   0.574   0.579   0.523   0.468   0.493   0.512   0.453   0.510   0.468   0.470   0.493   0.479   0.487   0.551   0.571   0.564   0.604   0.605   0.609   0.558   0.541   0.533   0.562   0.537   0.555   0.579   0.542   0.490   0.505   0.480   0.472   0.482   0.471   0.428   0.448   0.462   0.447   0.468   0.469   0.482   0.510   0.520   0.501   0.504   0.482   0.461   0.445   0.470   0.501   0.528   0.500   0.505   0.541   0.558   0.542   0.559   0.564   0.583   0.627   0.649   0.639   0.635   0.589   0.627   0.691   0.680   0.636   0.663   0.700   0.694   0.626   0.621   0.664   0.702   0.640   0.629   0.638
   335.80    0.527   0.525   0.549   0.586   0.596   0.619   0.590   0.596   0.581   0.572   0.554   0.544   0.521   0.562   0.580   0.552   0.493   0.518   0.532   0.512   0.564   0.562   0.562   0.587   0.578   0.556   0.530   0.535   0.528   0.540   0.546   0.532   0.503   0.518   0.503   0.511   0.505   0.531   0.581   0.531   0.503   0.495   0.505   0.507   0.498   0.553   0.596   0.569   0.530   0.530   0.513   0.475   0.495   0.496   0.518   0.552   0.545   0.515   0.512   0.537   0.526   0.510   0.533   0.528   0.537   0.504   0.541   0.539   0.554   0.552   0.533   0.550   0.572   0.547   0.592   0.596   0.600   0.543   0.509   0.510   0.525   0.571   0.534   0.571   0.537   0.528   0.566   0.604   0.593   0.590   0.622   0.636   0.629   0.590   0.571   0.616   0.642   0.661   0.641   0.647   0.617   0.639   0.662   0.633   0.584   0.597   0.535   0.501   0.506   0.553   0.569   0.633   0.600   0.575   0.554   0.573   0.561   0.569   0.535   0.488   0.503   0.527   0.509   0.535   0.507   0.491   0.509   0.524   0.516   0.553   0.572   0.571   0.576   0.578   0.552   0.557   0.536   0.548   0.545   0.568   0.527   0.528   0.542   0.485   0.490   0.495   0.477   0.467   0.450   0.424   0.441   0.426   0.414   0.475   0.466   0.492   0.482   0.492   0.510   0.479   0.478   0.449   0.476   0.473   0.514   0.507   0.502   0.508   0.520   0.542   0.554   0.535   0.563   0.595   0.610   0.645   0.628   0.627   0.606   0.646   0.693   0.697   0.647   0.645   0.653   0.632   0.619   0.612   0.678   0.632   0.674   0.639   0.671
   326.50    0.509   0.530   0.575   0.611   0.622   0.681   0.645   0.577   0.606   0.579   0.546   0.555   0.510   0.558   0.586   0.548   0.535   0.516   0.554   0.543   0.561   0.539   0.548   0.529   0.557   0.568   0.577   0.533   0.568   0.585   0.589   0.578   0.546   0.521   0.514   0.489   0.541   0.570   0.553   0.515   0.503   0.539   0.540   0.517   0.539   0.563   0.583   0.594   0.551   0.510   0.499   0.496   0.504   0.511   0.504   0.521   0.512   0.493   0.530   0.533   0.546   0.523   0.547   0.515   0.536   0.511   0.529   0.581   0.593   0.600   0.564   0.539   0.574   0.604   0.607   0.602   0.554   0.566   0.516   0.516   0.524   0.544   0.538   0.589   0.586   0.571   0.583   0.599   0.607   0.585   0.656   0.627   0.599   0.596   0.600   0.554   0.611   0.607   0.639   0.606   0.597   0.620   0.635   0.680   0.621   0.604   0.565   0.514   0.533   0.538   0.556   0.574   0.575   0.573   0.558   0.589   0.551   0.564   0.505   0.495   0.506   0.493   0.507   0.506   0.514   0.532   0.497   0.530   0.538   0.571   0.539   0.540   0.545   0.568   0.553   0.544   0.522   0.523   0.537   0.551   0.566   0.546   0.548   0.521   0.533   0.531   0.509   0.449   0.457   0.460   0.454   0.440   0.445   0.454   0.461   0.479   0.473   0.476   0.523   0.523   0.485   0.491   0.500   0.497   0.523   0.504   0.503   0.511   0.512   0.510   0.552   0.584   0.553   0.565   0.616   0.640   0.597   0.651   0.645   0.650   0.684   0.687   0.671   0.700   0.662   0.596   0.626   0.657   0.658   0.662   0.644   0.633   0.640
   317.20    0.523   0.525   0.563   0.600   0.619   0.634   0.595   0.599   0.638   0.580   0.573   0.549   0.552   0.572   0.590   0.545   0.539   0.547   0.547   0.578   0.546   0.563   0.534   0.532   0.515   0.543   0.573   0.542   0.531   0.610   0.604   0.583   0.534   0.505   0.523   0.496   0.570   0.597   0.562   0.527   0.528   0.516   0.577   0.570   0.556   0.578   0.592   0.581   0.552   0.519   0.499   0.515   0.524   0.545   0.516   0.543   0.525   0.482   0.526   0.563   0.544   0.525   0.525   0.509   0.517   0.523   0.550   0.548   0.583   0.611   0.626   0.579   0.584   0.574   0.606   0.618   0.582   0.551   0.514   0.484   0.505   0.540   0.539   0.568   0.570   0.559   0.591   0.575   0.612   0.635   0.651   0.566   0.571   0.590   0.575   0.553   0.569   0.604   0.590   0.617   0.622   0.597   0.584   0.605   0.602   0.599   0.578   0.559   0.496   0.507   0.528   0.500   0.556   0.524   0.515   0.506   0.559   0.603   0.535   0.528   0.499   0.481   0.509   0.524   0.523   0.508   0.514   0.502   0.529   0.536   0.544   0.566   0.585   0.566   0.544   0.514   0.512   0.505   0.523   0.556   0.581   0.547   0.528   0.529   0.549   0.517   0.505   0.490   0.482   0.463   0.421   0.446   0.450   0.459   0.440   0.477   0.494   0.514   0.528   0.510   0.487   0.452   0.491   0.502   0.499   0.510   0.541   0.528   0.545   0.543   0.544   0.578   0.556   0.566   0.614   0.615   0.583   0.645   0.666   0.683   0.679   0.711   0.718   0.716   0.647   0.649   0.609   0.633   0.630   0.638   0.637   0.618   0.615
   307.90    0.510   0.507   0.571   0.585   0.594   0.587   0.577   0.567   0.617   0.593   0.540   0.558   0.588   0.593   0.555   0.560   0.571   0.556   0.557   0.558   0.546   0.542   0.512   0.495   0.514   0.501   0.541   0.525   0.548   0.590   0.560   0.582   0.548   0.522   0.518   0.550   0.598   0.586   0.573   0.531   0.528   0.511   0.558   0.579   0.576   0.595   0.596   0.593   0.545   0.521   0.515   0.512   0.541   0.562   0.545   0.531   0.515   0.531   0.554   0.564   0.552   0.543   0.520   0.526   0.501   0.519   0.576   0.589   0.563   0.543   0.568   0.572   0.543   0.605   0.599   0.622   0.573   0.544   0.536   0.506   0.509   0.473   0.533   0.535   0.566   0.595   0.564   0.583   0.620   0.644   0.637   0.577   0.530   0.573   0.554   0.562   0.561   0.559   0.522   0.592   0.596   0.612   0.571   0.568   0.595   0.597   0.571   0.524   0.521   0.501   0.528   0.512   0.539   0.543   0.475   0.478   0.514   0.549   0.538   0.507   0.487   0.489   0.514   0.504   0.505   0.499   0.499   0.484   0.513   0.527   0.557   0.582   0.550   0.533   0.504   0.498   0.475   0.455   0.492   0.563   0.562   0.580   0.597   0.582   0.543   0.559   0.470   0.493   0.496   0.441   0.458   0.441   0.435   0.450   0.425   0.459   0.545   0.540   0.563   0.568   0.503   0.477   0.516   0.548   0.549   0.560   0.556   0.569   0.567   0.556   0.569   0.562   0.573   0.569   0.612   0.618   0.619   0.622   0.622   0.652   0.646   0.689   0.705   0.679   0.648   0.616   0.559   0.586   0.638   0.610   0.645   0.584   0.588
   298.60    0.529   0.505   0.548   0.591   0.579   0.586   0.563   0.547   0.578   0.597   0.589   0.599   0.568   0.567   0.567   0.558   0.551   0.563   0.576   0.557   0.528   0.524   0.536   0.521   0.494   0.496   0.506   0.525   0.564   0.557   0.553   0.529   0.537   0.547   0.516   0.565   0.570   0.586   0.591   0.561   0.519   0.506   0.512   0.534   0.583   0.567   0.565   0.579   0.570   0.562   0.521   0.493   0.495   0.518   0.520   0.514   0.491   0.511   0.554   0.532   0.550   0.558   0.560   0.524   0.510   0.570   0.598   0.593   0.559   0.534   0.525   0.560   0.527   0.553   0.600   0.587   0.544   0.545   0.530   0.509   0.523   0.519   0.535   0.544   0.555   0.579   0.569   0.570   0.582   0.615   0.611   0.582   0.561   0.574   0.601   0.575   0.551   0.579   0.600   0.616   0.604   0.589   0.586   0.535   0.512   0.551   0.557   0.521   0.533   0.513   0.521   0.540   0.536   0.517   0.509   0.481   0.505   0.509   0.509   0.498   0.475   0.479   0.508   0.523   0.517   0.501   0.527   0.502   0.534   0.523   0.512   0.533   0.546   0.512   0.491   0.432   0.437   0.440   0.440   0.502   0.517   0.520   0.570   0.577   0.558   0.538   0.514   0.520   0.491   0.439   0.474   0.430   0.405   0.442   0.481   0.461   0.545   0.559   0.546   0.567   0.517   0.493   0.507   0.520   0.534   0.557   0.547   0.533   0.545   0.543   0.567   0.559   0.528   0.600   0.559   0.605   0.625   0.616   0.605   0.629   0.637   0.675   0.656   0.633   0.658   0.584   0.606   0.601   0.589   0.597   0.609   0.574   0.562
   289.30    0.496   0.506   0.536   0.555   0.561   0.557   0.570   0.556   0.569   0.626   0.624   0.595   0.545   0.527   0.511   0.524   0.532   0.528   0.563   0.528   0.539   0.528   0.509   0.506   0.531   0.499   0.509   0.523   0.551   0.553   0.543   0.532   0.510   0.523   0.520   0.521   0.542   0.513   0.578   0.553   0.502   0.508   0.506   0.543   0.569   0.556   0.584   0.503   0.533   0.525   0.506   0.505   0.499   0.540   0.510   0.526   0.524   0.552   0.539   0.507   0.520   0.521   0.566   0.570   0.572   0.599   0.577   0.567   0.532   0.541   0.542   0.516   0.541   0.556   0.562   0.580   0.592   0.550   0.586   0.565   0.539   0.541   0.556   0.595   0.598   0.603   0.575   0.585   0.622   0.573   0.592   0.579   0.548   0.572   0.546   0.532   0.578   0.572   0.607   0.582   0.586   0.585   0.558   0.568   0.556   0.575   0.525   0.526   0.536   0.550   0.515   0.550   0.522   0.523   0.492   0.493   0.478   0.484   0.493   0.511   0.500   0.499   0.476   0.499   0.511   0.490   0.503   0.535   0.565   0.512   0.510   0.554   0.556   0.527   0.509   0.441   0.423   0.462   0.457   0.478   0.511   0.524   0.537   0.557   0.554   0.548   0.527   0.484   0.477   0.462   0.450   0.437   0.446   0.467   0.473   0.502   0.546   0.529   0.519   0.537   0.550   0.522   0.516   0.543   0.545   0.552   0.508   0.521   0.550   0.545   0.544   0.537   0.570   0.620   0.637   0.591   0.642   0.612   0.585   0.601   0.612   0.643   0.602   0.634   0.603   0.570   0.619   0.621   0.626   0.592   0.543   0.510   0.513
   280.00    0.491   0.493   0.504   0.534   0.567   0.551   0.567   0.524   0.590   0.594   0.598   0.562   0.513   0.512   0.529   0.529   0.513   0.533   0.484   0.496   0.528   0.490   0.477   0.535   0.525   0.540   0.561   0.574   0.546   0.549   0.551   0.533   0.520   0.482   0.500   0.560   0.530   0.552   0.531   0.554   0.512   0.508   0.542   0.518   0.541   0.557   0.529   0.542   0.524   0.531   0.521   0.531   0.535   0.516   0.541   0.559   0.535   0.524   0.553   0.536   0.549   0.552   0.583   0.593   0.585   0.611   0.551   0.581   0.545   0.551   0.559   0.570   0.515   0.556   0.538   0.575   0.597   0.590   0.578   0.606   0.561   0.610   0.593   0.629   0.599   0.595   0.544   0.575   0.598   0.617   0.573   0.552   0.593   0.593   0.558   0.505   0.569   0.597   0.601   0.583   0.571   0.565   0.586   0.598   0.596   0.533   0.505   0.545   0.522   0.527   0.509   0.557   0.523   0.529   0.475   0.485   0.500   0.506   0.482   0.493   0.523   0.496   0.453   0.499   0.488   0.484   0.511   0.557   0.525   0.529   0.531   0.544   0.537   0.546   0.518   0.451   0.459   0.480   0.528   0.537   0.540   0.523   0.522   0.571   0.566   0.568   0.517   0.518   0.479   0.490   0.476   0.448   0.447   0.427   0.466   0.509   0.562   0.508   0.526   0.548   0.575   0.534   0.567   0.552   0.548   0.514   0.490   0.514   0.520   0.527   0.535   0.529   0.593   0.588   0.652   0.638   0.622   0.618   0.618   0.606   0.640   0.647   0.648   0.666   0.629   0.610   0.618   0.642   0.585   0.554   0.530   0.506   0.486
   270.70    0.502   0.490   0.505   0.506   0.547   0.555   0.585   0.524   0.581   0.584   0.595   0.561   0.533   0.512   0.535   0.501   0.487   0.483   0.489   0.473   0.482   0.445   0.441   0.491   0.511   0.522   0.529   0.510   0.544   0.503   0.495   0.531   0.521   0.491   0.492   0.506   0.526   0.569   0.498   0.549   0.552   0.515   0.520   0.521   0.566   0.560   0.531   0.507   0.526   0.541   0.541   0.541   0.540   0.521   0.566   0.549   0.524   0.530   0.546   0.557   0.566   0.563   0.587   0.588   0.579   0.606   0.585   0.546   0.548   0.596   0.582   0.567   0.539   0.570   0.585   0.596   0.578   0.586   0.603   0.622   0.649   0.631   0.645   0.660   0.633   0.610   0.579   0.574   0.608   0.609   0.599   0.560   0.593   0.563   0.572   0.515   0.540   0.571   0.572   0.580   0.566   0.573   0.597   0.580   0.529   0.524   0.533   0.533   0.548   0.506   0.507   0.573   0.555   0.557   0.527   0.510   0.476   0.510   0.478   0.505   0.493   0.485   0.453   0.478   0.494   0.512   0.517   0.535   0.540   0.513   0.540   0.534   0.555   0.557   0.501   0.479   0.492   0.491   0.535   0.542   0.602   0.597   0.594   0.568   0.576   0.552   0.530   0.530   0.490   0.517   0.485   0.473   0.486   0.445   0.434   0.502   0.539   0.494   0.538   0.524   0.557   0.552   0.565   0.572   0.531   0.485   0.493   0.513   0.530   0.550   0.541   0.579   0.581   0.599   0.642   0.616   0.608   0.609   0.609   0.610   0.648   0.647   0.604   0.610   0.618   0.627   0.578   0.577   0.552   0.546   0.495   0.484   0.506
   261.40    0.543   0.537   0.510   0.536   0.569   0.602   0.609   0.573   0.592   0.566   0.565   0.550   0.539   0.503   0.479   0.500   0.485   0.476   0.474   0.468   0.472   0.479   0.459   0.485   0.491   0.513   0.478   0.492   0.482   0.455   0.454   0.496   0.504   0.477   0.464   0.504   0.527   0.518   0.512   0.530   0.562   0.512   0.518   0.527   0.552   0.587   0.574   0.537   0.549   0.534   0.501   0.519   0.499   0.554   0.579   0.568   0.564   0.535   0.570   0.598   0.560   0.533   0.583   0.599   0.605   0.581   0.577   0.577   0.577   0.578   0.572   0.563   0.586   0.605   0.625   0.628   0.618   0.615   0.588   0.614   0.653   0.669   0.646   0.680   0.648   0.638   0.572   0.592   0.587   0.601   0.564   0.565   0.572   0.529   0.539   0.501   0.490   0.503   0.542   0.547   0.563   0.538   0.559   0.605   0.615   0.591   0.557   0.563   0.574   0.549   0.537   0.565   0.553   0.522   0.501   0.510   0.501   0.502   0.499   0.480   0.489   0.493   0.495   0.489   0.501   0.530   0.533   0.564   0.538   0.523   0.537   0.583   0.596   0.568   0.567   0.537   0.483   0.499   0.565   0.605   0.621   0.612   0.551   0.569   0.604   0.585   0.541   0.543   0.527   0.477   0.504   0.468   0.470   0.451   0.491   0.471   0.541   0.554   0.565   0.547   0.573   0.575   0.535   0.525   0.536   0.489   0.509   0.552   0.530   0.546   0.572   0.572   0.561   0.575   0.630   0.638   0.641   0.627   0.603   0.594   0.614   0.596   0.540   0.546   0.564   0.536   0.576   0.565   0.533   0.557   0.544   0.549   0.539
   252.10    0.575   0.623   0.606   0.629   0.598   0.609   0.592   0.626   0.610   0.594   0.559   0.558   0.511   0.470   0.461   0.481   0.466   0.456   0.442   0.446   0.433   0.437   0.463   0.469   0.449   0.436   0.448   0.432   0.453   0.457   0.453   0.455   0.473   0.472   0.486   0.492   0.527   0.535   0.517   0.511   0.523   0.533   0.524   0.558   0.598   0.631   0.594   0.530   0.527   0.527   0.554   0.513   0.472   0.553   0.587   0.587   0.538   0.538   0.553   0.553   0.554   0.576   0.607   0.606   0.619   0.582   0.558   0.566   0.541   0.544   0.538   0.545   0.556   0.642   0.665   0.663   0.657   0.611   0.604   0.686   0.679   0.701   0.648   0.643   0.665   0.644   0.587   0.569   0.588   0.596   0.580   0.577   0.518   0.494   0.495   0.493   0.511   0.540   0.564   0.545   0.510   0.535   0.557   0.548   0.573   0.591   0.602   0.580   0.565   0.548   0.499   0.527   0.537   0.518   0.510   0.520   0.527   0.518   0.485   0.470   0.474   0.460   0.448   0.491   0.481   0.498   0.508   0.541   0.553   0.570   0.527   0.598   0.570   0.608   0.579   0.534   0.505   0.531   0.542   0.602   0.608   0.598   0.549   0.520   0.561   0.592   0.573   0.578   0.559   0.534   0.516   0.477   0.449   0.459   0.497   0.518   0.525   0.562   0.542   0.563   0.585   0.585   0.558   0.498   0.497   0.487   0.513   0.516   0.528   0.565   0.600   0.535   0.549   0.622   0.632   0.638   0.612   0.602   0.621   0.646   0.610   0.598   0.561   0.532   0.545   0.572   0.579   0.574   0.530   0.529   0.539   0.541   0.525
   242.80    0.606   0.612   0.644   0.634   0.586   0.570   0.600   0.582   0.593   0.562   0.517   0.555   0.505   0.458   0.477   0.486   0.478   0.467   0.447   0.423   0.458   0.420   0.447   0.458   0.444   0.439   0.433   0.440   0.432   0.443   0.460   0.436   0.450   0.482   0.470   0.455   0.493   0.498   0.520   0.499   0.535   0.541   0.588   0.573   0.590   0.611   0.610   0.560   0.548   0.518   0.486   0.544   0.521   0.550   0.551   0.574   0.578   0.549   0.571   0.578   0.593   0.585   0.588   0.586   0.596   0.559   0.563   0.569   0.536   0.552   0.542   0.533   0.587   0.633   0.668   0.689   0.651   0.622   0.675   0.658   0.698   0.669   0.661   0.635   0.637   0.639   0.570   0.563   0.549   0.582   0.605   0.577   0.565   0.483   0.514   0.504   0.527   0.517   0.549   0.554   0.581   0.546   0.554   0.560   0.563   0.563   0.568   0.559   0.526   0.549   0.545   0.542   0.533   0.526   0.488   0.507   0.540   0.539   0.504   0.509   0.500   0.494   0.476   0.464   0.493   0.464   0.503   0.543   0.583   0.564   0.610   0.598   0.578   0.577   0.563   0.569   0.555   0.568   0.544   0.601   0.593   0.595   0.587   0.553   0.588   0.597   0.588   0.596   0.567   0.530   0.525   0.507   0.455   0.480   0.458   0.499   0.510   0.548   0.534   0.551   0.549   0.542   0.524   0.498   0.519   0.525   0.529   0.484   0.523   0.569   0.559   0.564   0.565   0.609   0.623   0.604   0.574   0.601   0.617   0.602   0.562   0.560   0.580   0.550   0.515   0.554   0.573   0.574   0.567   0.535   0.492   0.521   0.503
   233.50    0.582   0.599   0.604   0.586   0.578   0.545   0.576   0.579   0.596   0.597   0.581   0.546   0.514   0.508   0.494   0.472   0.484   0.470   0.431   0.435   0.449   0.451   0.423   0.445   0.459   0.475   0.431   0.433   0.428   0.428   0.463   0.432   0.470   0.517   0.485   0.456   0.459   0.507   0.536   0.569   0.542   0.557   0.583   0.547   0.571   0.588   0.580   0.557   0.569   0.529   0.524   0.526   0.536   0.582   0.596   0.538   0.560   0.594   0.566   0.598   0.598   0.622   0.606   0.566   0.569   0.565   0.553   0.581   0.571   0.530   0.531   0.564   0.589   0.590   0.631   0.641   0.630   0.641   0.638   0.654   0.704   0.660   0.666   0.684   0.653   0.642   0.581   0.558   0.604   0.608   0.591   0.586   0.576   0.539   0.545   0.564   0.507   0.520   0.569   0.546   0.595   0.588   0.574   0.592   0.591   0.598   0.549   0.512   0.477   0.492   0.507   0.534   0.579   0.548   0.527   0.502   0.515   0.509   0.530   0.517   0.524   0.536   0.496   0.466   0.462   0.480   0.527   0.554   0.561   0.600   0.602   0.570   0.559   0.558   0.594   0.574   0.564   0.583   0.570   0.606   0.576   0.623   0.617   0.600   0.552   0.603   0.604   0.548   0.563   0.564   0.535   0.534   0.469   0.483   0.488   0.499   0.538   0.561   0.537   0.542   0.527   0.528   0.508   0.513   0.539   0.516   0.530   0.537   0.500   0.546   0.548   0.563   0.572   0.616   0.591   0.561   0.590   0.583   0.579   0.598   0.564   0.559   0.533   0.506   0.535   0.596   0.600   0.587   0.548   0.525   0.481   0.506   0.547
   224.20    0.582   0.569   0.573   0.614   0.545   0.520   0.543   0.584   0.558   0.601   0.593   0.543   0.506   0.515   0.529   0.484   0.460   0.437   0.412   0.423   0.424   0.451   0.465   0.480   0.466   0.491   0.443   0.455   0.432   0.443   0.449   0.467   0.512   0.537   0.488   0.482   0.475   0.508   0.532   0.525   0.551   0.588   0.561   0.561   0.578   0.564   0.519   0.536   0.557   0.563   0.515   0.577   0.580   0.562   0.592   0.567   0.579   0.583   0.606   0.578   0.636   0.637   0.656   0.578   0.564   0.590   0.609   0.656   0.637   0.593   0.556   0.561   0.600   0.583   0.619   0.611   0.619   0.627   0.622   0.653   0.680   0.686   0.668   0.659   0.658   0.631   0.574   0.535   0.586   0.600   0.586   0.576   0.582   0.555   0.594   0.577   0.497   0.524   0.516   0.546   0.546   0.590   0.578   0.633   0.639   0.631   0.592   0.512   0.525   0.487   0.510   0.556   0.538   0.552   0.529   0.498   0.486   0.505   0.502   0.499   0.536   0.535   0.521   0.488   0.498   0.469   0.484   0.531   0.570   0.561   0.571   0.576   0.564   0.557   0.554   0.532   0.583   0.578   0.595   0.616   0.604   0.622   0.631   0.614   0.574   0.597   0.599   0.597   0.569   0.569   0.567   0.565   0.570   0.518   0.493   0.522   0.529   0.523   0.531   0.530   0.485   0.479   0.492   0.508   0.526   0.520   0.567   0.553   0.516   0.529   0.522   0.542   0.545   0.561   0.607   0.588   0.610   0.593   0.566   0.593   0.545   0.526   0.521   0.557   0.561   0.593   0.575   0.563   0.520   0.500   0.491   0.492   0.535
   214.90    0.543   0.522   0.581   0.587   0.565   0.566   0.522   0.580   0.581   0.533   0.546   0.541   0.535   0.524   0.507   0.488   0.443   0.467   0.449   0.466   0.433   0.434   0.452   0.436   0.479   0.509   0.505   0.505   0.459   0.453   0.470   0.508   0.512   0.530   0.449   0.501   0.479   0.538   0.540   0.510   0.556   0.585   0.564   0.516   0.536   0.547   0.533   0.542   0.521   0.559   0.534   0.558   0.576   0.534   0.612   0.626   0.609   0.605   0.614   0.610   0.625   0.622   0.659   0.659   0.647   0.644   0.661   0.685   0.653   0.640   0.630   0.598   0.635   0.608   0.615   0.630   0.665   0.634   0.612   0.643   0.672   0.644   0.633   0.620   0.649   0.628   0.586   0.574   0.609   0.585   0.523   0.555   0.576   0.584   0.578   0.553   0.517   0.541   0.545   0.560   0.593   0.606   0.603   0.646   0.658   0.600   0.587   0.592   0.569   0.503   0.548   0.552   0.578   0.577   0.553   0.509   0.512   0.493   0.501   0.518   0.536   0.534   0.485   0.456   0.473   0.458   0.480   0.509   0.559   0.595   0.584   0.612   0.560   0.553   0.511   0.523   0.602   0.607   0.598   0.551   0.587   0.608   0.643   0.586   0.611   0.606   0.616   0.622   0.573   0.564   0.592   0.568   0.546   0.531   0.519   0.521   0.551   0.507   0.515   0.503   0.476   0.460   0.459   0.473   0.529   0.577   0.616   0.576   0.568   0.567   0.556   0.553   0.556   0.557   0.542   0.563   0.581   0.578   0.580   0.553   0.542   0.501   0.508   0.572   0.565   0.571   0.570   0.559   0.534   0.532   0.489   0.480   0.500
   205.60    0.521   0.546   0.552   0.573   0.600   0.588   0.560   0.585   0.578   0.562   0.551   0.539   0.529   0.502   0.504   0.498   0.499   0.465   0.483   0.507   0.457   0.470   0.468   0.488   0.486   0.496   0.484   0.463   0.457   0.455   0.461   0.479   0.502   0.503   0.486   0.473   0.510   0.496   0.524   0.515   0.525   0.540   0.541   0.492   0.521   0.534   0.559   0.577   0.563   0.522   0.506   0.551   0.554   0.556   0.601   0.604   0.633   0.619   0.623   0.634   0.630   0.668   0.659   0.674   0.653   0.655   0.660   0.658   0.653   0.674   0.601   0.612   0.604   0.611   0.634   0.606   0.636   0.668   0.635   0.665   0.647   0.663   0.647   0.637   0.610   0.583   0.568   0.557   0.592   0.584   0.523   0.579   0.597   0.563   0.561   0.574   0.537   0.539   0.540   0.568   0.618   0.603   0.613   0.613   0.604   0.586   0.598   0.615   0.603   0.585   0.576   0.562   0.616   0.617   0.597   0.507   0.512   0.529   0.502   0.525   0.513   0.517   0.480   0.481   0.516   0.501   0.524   0.526   0.579   0.581   0.563   0.595   0.594   0.588   0.535   0.576   0.602   0.576   0.593   0.556   0.557   0.582   0.607   0.624   0.624   0.628   0.658   0.632   0.587   0.575   0.585   0.573   0.588   0.563   0.565   0.553   0.538   0.495   0.476   0.465   0.485   0.459   0.508   0.547   0.569   0.621   0.639   0.604   0.611   0.596   0.613   0.581   0.560   0.569   0.536   0.534   0.579   0.583   0.591   0.584   0.556   0.500   0.522   0.589   0.517   0.554   0.538   0.527   0.529   0.556   0.512   0.497   0.492
   196.30    0.495   0.529   0.565   0.607   0.595   0.603   0.616   0.621   0.603   0.572   0.579   0.543   0.495   0.504   0.508   0.490   0.488   0.500   0.517   0.483   0.497   0.494   0.488   0.472   0.478   0.492   0.470   0.444   0.453   0.451   0.486   0.499   0.496   0.510   0.478   0.470   0.480   0.472   0.484   0.511   0.564   0.587   0.538   0.500   0.520   0.507   0.565   0.606   0.549   0.560   0.523   0.542   0.552   0.577   0.593   0.628   0.589   0.627   0.650   0.653   0.666   0.663   0.703   0.680   0.678   0.689   0.700   0.674   0.666   0.671   0.634   0.601   0.627   0.666   0.666   0.663   0.658   0.654   0.614   0.676   0.706   0.662   0.644   0.618   0.601   0.607   0.587   0.574   0.601   0.601   0.568   0.564   0.572   0.590   0.546   0.597   0.589   0.505   0.530   0.540   0.603   0.578   0.591   0.629   0.575   0.575   0.615   0.617   0.626   0.627   0.599   0.630   0.650   0.632   0.573   0.537   0.520   0.488   0.476   0.489   0.481   0.504   0.514   0.508   0.561   0.585   0.511   0.520   0.586   0.610   0.586   0.581   0.585   0.588   0.578   0.570   0.596   0.568   0.565   0.587   0.545   0.569   0.585   0.625   0.630   0.622   0.634   0.593   0.639   0.582   0.579   0.627   0.602   0.597   0.547   0.543   0.508   0.476   0.488   0.523   0.509   0.515   0.573   0.612   0.643   0.644   0.608   0.601   0.589   0.633   0.627   0.602   0.601   0.599   0.538   0.545   0.554   0.583   0.571   0.566   0.537   0.534   0.525   0.551   0.526   0.538   0.563   0.579   0.583   0.553   0.505   0.518   0.527
   187.00    0.542   0.521   0.575   0.604   0.638   0.625   0.648   0.634   0.654   0.582   0.565   0.524   0.502   0.510   0.512   0.532   0.515   0.531   0.525   0.495   0.496   0.500   0.469   0.480   0.487   0.451   0.444   0.457   0.452   0.466   0.506   0.498   0.499   0.487   0.489   0.475   0.480   0.464   0.479   0.511   0.527   0.565   0.537   0.552   0.559   0.529   0.582   0.620   0.590   0.569   0.532   0.547   0.557   0.571   0.575   0.602   0.574   0.584   0.635   0.646   0.668   0.694   0.656   0.692   0.679   0.713   0.668   0.674   0.673   0.670   0.641   0.680   0.684   0.695   0.708   0.682   0.624   0.676   0.657   0.672   0.661   0.682   0.702   0.683   0.640   0.624   0.607   0.583   0.631   0.579   0.574   0.553   0.547   0.579   0.576   0.613   0.570   0.529   0.534   0.541   0.570   0.603   0.584   0.596   0.567   0.568   0.531   0.568   0.623   0.645   0.639   0.605   0.625   0.620   0.588   0.533   0.523   0.474   0.472   0.467   0.487   0.492   0.522   0.521   0.563   0.593   0.562   0.524   0.555   0.588   0.590   0.594   0.552   0.585   0.570   0.574   0.566   0.530   0.564   0.558   0.547   0.554   0.559   0.597   0.595   0.558   0.574   0.587   0.612   0.608   0.591   0.615   0.629   0.588   0.572   0.528   0.509   0.499   0.498   0.494   0.542   0.575   0.612   0.602   0.597   0.599   0.610   0.618   0.613   0.593   0.626   0.637   0.638   0.563   0.578   0.563   0.531   0.558   0.535   0.534   0.529   0.517   0.527   0.551   0.510   0.529   0.561   0.557   0.566   0.554   0.513   0.547   0.533
   177.70    0.534   0.544   0.564   0.613   0.595   0.596   0.605   0.631   0.595   0.599   0.566   0.537   0.503   0.518   0.526   0.518   0.540   0.501   0.506   0.464   0.500   0.542   0.521   0.519   0.479   0.484   0.487   0.469   0.504   0.467   0.496   0.483   0.480   0.502   0.482   0.493   0.499   0.453   0.465   0.534   0.542   0.560   0.556   0.553   0.599   0.594   0.606   0.583   0.565   0.535   0.534   0.546   0.548   0.531   0.587   0.567   0.545   0.556   0.580   0.626   0.657   0.656   0.661   0.651   0.676   0.694   0.686   0.680   0.676   0.685   0.713   0.699   0.729   0.697   0.721   0.671   0.691   0.636   0.677   0.687   0.711   0.673   0.679   0.681   0.678   0.655   0.638   0.620   0.637   0.650   0.620   0.557   0.543   0.581   0.577   0.552   0.584   0.536   0.513   0.518   0.558   0.570   0.564   0.599   0.566   0.531   0.541   0.590   0.603   0.599   0.621   0.656   0.615   0.641   0.600   0.560   0.523   0.495   0.465   0.466   0.505   0.517   0.524   0.520   0.581   0.552   0.564   0.554   0.570   0.546   0.560   0.565   0.539   0.576   0.576   0.554   0.558   0.515   0.559   0.551   0.562   0.542   0.562   0.563   0.538   0.557   0.556   0.570   0.601   0.623   0.615   0.601   0.609   0.592   0.552   0.524   0.538   0.515   0.516   0.514   0.552   0.562   0.596   0.627   0.614   0.586   0.626   0.585   0.571   0.595   0.582   0.590   0.606   0.577   0.555   0.537   0.491   0.485   0.543   0.544   0.526   0.563   0.522   0.505   0.538   0.539   0.540   0.531   0.521   0.533   0.539   0.553   0.539
   168.40    0.488   0.524   0.558   0.584   0.601   0.602   0.599   0.595   0.588   0.552   0.564   0.529   0.505   0.483   0.520   0.495   0.518   0.474   0.479   0.491   0.504   0.530   0.573   0.520   0.476   0.505   0.510   0.495   0.512   0.479   0.494   0.490   0.488   0.519   0.514   0.520   0.478   0.475   0.505   0.539   0.553   0.595   0.541   0.569   0.580   0.620   0.620   0.616   0.583   0.568   0.554   0.530   0.527   0.562   0.570   0.616   0.602   0.603   0.565   0.597   0.616   0.629   0.647   0.638   0.617   0.640   0.710   0.707   0.699   0.721   0.734   0.724   0.698   0.711   0.710   0.662   0.655   0.640   0.676   0.681   0.688   0.676   0.627   0.634   0.598   0.657   0.674   0.614   0.649   0.632   0.584   0.563   0.602   0.566   0.564   0.549   0.595   0.534   0.540   0.552   0.515   0.557   0.567   0.606   0.570   0.523   0.573   0.593   0.605   0.567   0.585   0.626   0.577   0.579   0.587   0.558   0.520   0.504   0.465   0.469   0.517   0.530   0.488   0.504   0.540   0.547   0.577   0.558   0.570   0.584   0.574   0.566   0.530   0.560   0.583   0.553   0.571   0.523   0.549   0.582   0.582   0.562   0.567   0.533   0.548   0.605   0.563   0.554   0.594   0.608   0.564   0.564   0.566   0.543   0.535   0.535   0.564   0.538   0.545   0.549   0.555   0.564   0.574   0.589   0.582   0.576   0.591   0.584   0.605   0.617   0.586   0.549   0.574   0.540   0.513   0.506   0.502   0.518   0.567   0.539   0.541   0.536   0.574   0.530   0.513   0.506   0.489   0.532   0.541   0.508   0.508   0.553   0.563
   159.10    0.519   0.535   0.581   0.564   0.578   0.616   0.575   0.566   0.539   0.531   0.509   0.511   0.497   0.501   0.492   0.466   0.481   0.475   0.475   0.504   0.480   0.530   0.534   0.535   0.471   0.484   0.474   0.471   0.472   0.482   0.466   0.503   0.471   0.538   0.544   0.509   0.435   0.512   0.508   0.507   0.578   0.552   0.560   0.568   0.563   0.588   0.569   0.578   0.575   0.602   0.575   0.571   0.536   0.549   0.526   0.574   0.618   0.574   0.598   0.612   0.605   0.613   0.613   0.627   0.625   0.630   0.666   0.701   0.694   0.705   0.696   0.695   0.689   0.700   0.675   0.688   0.685   0.686   0.693   0.687   0.686   0.654   0.576   0.608   0.585   0.585   0.614   0.614   0.612   0.609   0.586   0.606   0.603   0.607   0.566   0.540   0.572   0.541   0.556   0.548   0.550   0.570   0.548   0.564   0.558   0.581   0.583   0.635   0.610   0.575   0.565   0.600   0.587   0.578   0.582   0.545   0.549   0.511   0.478   0.469   0.520   0.545   0.503   0.471   0.492   0.501   0.552   0.560   0.567   0.561   0.553   0.539   0.559   0.613   0.587   0.576   0.557   0.560   0.571   0.555   0.612   0.625   0.563   0.560   0.568   0.585   0.574   0.558   0.592   0.590   0.598   0.579   0.596   0.559   0.531   0.545   0.543   0.498   0.520   0.524   0.530   0.547   0.544   0.576   0.586   0.610   0.579   0.581   0.589   0.601   0.583   0.591   0.568   0.545   0.526   0.523   0.519   0.549   0.565   0.543   0.527   0.561   0.603   0.565   0.529   0.519   0.490   0.502   0.517   0.523   0.497   0.518   0.567
   149.80    0.516   0.558   0.587   0.582   0.601   0.559   0.584   0.536   0.537   0.542   0.495   0.505   0.498   0.505   0.497   0.475   0.480   0.473   0.483   0.480   0.476   0.520   0.541   0.505   0.500   0.488   0.473   0.474   0.450   0.481   0.509   0.505   0.546   0.546   0.517   0.503   0.490   0.498   0.531   0.544   0.548   0.544   0.577   0.596   0.618   0.609   0.595   0.625   0.678   0.647   0.603   0.589   0.570   0.579   0.532   0.590   0.645   0.613   0.590   0.582   0.619   0.627   0.615   0.566   0.586   0.621   0.654   0.691   0.703   0.675   0.735   0.702   0.677   0.668   0.659   0.709   0.741   0.691   0.672   0.653   0.674   0.642   0.606   0.622   0.566   0.547   0.556   0.571   0.606   0.571   0.550   0.580   0.622   0.636   0.580   0.531   0.562   0.512   0.539   0.533   0.556   0.568   0.557   0.561   0.570   0.592   0.625   0.629   0.579   0.558   0.551   0.555   0.566   0.560   0.577   0.561   0.534   0.500   0.476   0.499   0.519   0.496   0.513   0.511   0.523   0.504   0.533   0.528   0.583   0.570   0.549   0.567   0.599   0.604   0.601   0.572   0.588   0.578   0.625   0.599   0.625   0.564   0.573   0.585   0.587   0.572   0.566   0.575   0.602   0.562   0.595   0.614   0.573   0.571   0.550   0.549   0.526   0.494   0.518   0.530   0.559   0.566   0.575   0.631   0.614   0.610   0.627   0.573   0.588   0.585   0.591   0.589   0.545   0.547   0.548   0.551   0.534   0.564   0.590   0.570   0.531   0.555   0.570   0.547   0.526   0.553   0.515   0.513   0.517   0.528   0.553   0.539   0.541
   140.50    0.540   0.542   0.602   0.552   0.580   0.596   0.552   0.537   0.549   0.549   0.475   0.497   0.471   0.523   0.516   0.509   0.472   0.521   0.517   0.516   0.524   0.540   0.518   0.485   0.509   0.525   0.490   0.465   0.473   0.476   0.514   0.485   0.531   0.541   0.481   0.462   0.517   0.532   0.560   0.592   0.600   0.572   0.569   0.588   0.602   0.599   0.627   0.624   0.636   0.637   0.623   0.602   0.567   0.551   0.535   0.555   0.593   0.625   0.576   0.586   0.650   0.634   0.659   0.619   0.591   0.602   0.626   0.651   0.649   0.668   0.695   0.716   0.717   0.687   0.701   0.717   0.719   0.656   0.655   0.652   0.657   0.683   0.654   0.659   0.594   0.549   0.551   0.590   0.566   0.600   0.577   0.535   0.593   0.579   0.606   0.589   0.522   0.515   0.525   0.521   0.537   0.553   0.577   0.569   0.579   0.615   0.630   0.596   0.624   0.632   0.573   0.555   0.559   0.560   0.585   0.545   0.536   0.479   0.464   0.458   0.460   0.479   0.518   0.511   0.481   0.528   0.502   0.571   0.559   0.591   0.596   0.599   0.628   0.591   0.614   0.597   0.597   0.615   0.662   0.628   0.619   0.553   0.565   0.551   0.586   0.562   0.550   0.543   0.566   0.557   0.611   0.609   0.630   0.617   0.562   0.565   0.531   0.531   0.517   0.555   0.553   0.566   0.563   0.589   0.614   0.638   0.620   0.569   0.590   0.566   0.577   0.549   0.561   0.509   0.541   0.556   0.552   0.586   0.594   0.575   0.555   0.563   0.564   0.596   0.586   0.544   0.536   0.536   0.544   0.520   0.584   0.572   0.537
   131.20    0.580   0.569   0.579   0.578   0.567   0.566   0.561   0.561   0.570   0.561   0.482   0.505   0.464   0.498   0.538   0.564   0.520   0.552   0.565   0.558   0.567   0.574   0.557   0.518   0.504   0.498   0.462   0.447   0.477   0.469   0.506   0.495   0.516   0.530   0.511   0.486   0.529   0.546   0.563   0.592   0.596   0.592   0.617   0.611   0.656   0.609   0.631   0.634   0.621   0.623   0.585   0.573   0.561   0.542   0.496   0.539   0.568   0.626   0.615   0.588   0.654   0.577   0.598   0.626   0.644   0.638   0.699   0.651   0.655   0.662   0.655   0.645   0.686   0.683   0.674   0.689   0.671   0.656   0.644   0.679   0.670   0.666   0.634   0.633   0.613   0.574   0.560   0.599   0.569   0.568   0.579   0.556   0.619   0.619   0.575   0.554   0.534   0.507   0.486   0.518   0.557   0.536   0.590   0.613   0.613   0.601   0.619   0.621   0.585   0.615   0.605   0.577   0.552   0.524   0.544   0.564   0.520   0.509   0.492   0.436   0.475   0.464   0.458   0.493   0.492   0.498   0.521   0.530   0.589   0.593   0.604   0.594   0.615   0.590   0.578   0.602   0.605   0.606   0.651   0.647   0.645   0.585   0.549   0.571   0.597   0.611   0.554   0.539   0.583   0.587   0.608   0.583   0.591   0.594   0.550   0.563   0.534   0.531   0.528   0.537   0.531   0.535   0.555   0.537   0.558   0.587   0.599   0.586   0.602   0.601   0.587   0.567   0.575   0.539   0.555   0.515   0.563   0.579   0.601   0.595   0.543   0.571   0.564   0.585   0.556   0.500   0.526   0.509   0.549   0.544   0.542   0.518   0.551
   121.90    0.539   0.565   0.561   0.602   0.565   0.578   0.580   0.590   0.540   0.548   0.509   0.505   0.517   0.483   0.493   0.523   0.561   0.583   0.591   0.582   0.625   0.633   0.573   0.545   0.489   0.475   0.481   0.457   0.471   0.491   0.455   0.476   0.494   0.488   0.508   0.544   0.563   0.583   0.587   0.565   0.630   0.625   0.675   0.632   0.663   0.664   0.670   0.688   0.629   0.650   0.611   0.626   0.626   0.560   0.566   0.582   0.598   0.605   0.565   0.604   0.608   0.584   0.582   0.578   0.649   0.686   0.698   0.704   0.670   0.658   0.630   0.614   0.643   0.705   0.680   0.678   0.624   0.656   0.642   0.664   0.685   0.641   0.660   0.668   0.626   0.627   0.576   0.589   0.569   0.552   0.533   0.559   0.588   0.594   0.567   0.563   0.541   0.490   0.489   0.522   0.516   0.535   0.568   0.594   0.584   0.622   0.612   0.561   0.575   0.613   0.567   0.506   0.527   0.494   0.548   0.566   0.515   0.498   0.466   0.456   0.447   0.478   0.443   0.445   0.476   0.497   0.520   0.500   0.561   0.576   0.574   0.582   0.573   0.604   0.593   0.576   0.646   0.623   0.601   0.600   0.612   0.626   0.588   0.639   0.628   0.572   0.549   0.552   0.584   0.609   0.613   0.538   0.548   0.541   0.545   0.564   0.556   0.526   0.521   0.517   0.514   0.546   0.526   0.545   0.532   0.555   0.546   0.552   0.585   0.577   0.593   0.603   0.585   0.571   0.535   0.534   0.564   0.596   0.589   0.578   0.565   0.563   0.574   0.579   0.550   0.547   0.546   0.497   0.509   0.531   0.535   0.535   0.558
   112.60    0.549   0.579   0.582   0.582   0.584   0.611   0.578   0.606   0.581   0.586   0.521   0.519   0.527   0.477   0.517   0.531   0.564   0.587   0.590   0.637   0.609   0.609   0.606   0.533   0.490   0.470   0.499   0.478   0.481   0.485   0.481   0.495   0.511   0.519   0.540   0.546   0.547   0.540   0.592   0.596   0.617   0.627   0.648   0.649   0.649   0.670   0.678   0.705   0.675   0.619   0.616   0.653   0.640   0.593   0.594   0.600   0.594   0.522   0.568   0.580   0.613   0.616   0.626   0.597   0.617   0.659   0.682   0.663   0.630   0.628   0.597   0.619   0.642   0.659   0.664   0.671   0.665   0.698   0.681   0.690   0.671   0.696   0.717   0.710   0.642   0.606   0.585   0.573   0.578   0.581   0.526   0.550   0.566   0.610   0.605   0.600   0.535   0.507   0.519   0.536   0.503   0.513   0.540   0.535   0.544   0.576   0.574   0.562   0.552   0.566   0.567   0.507   0.542   0.513   0.527   0.510   0.520   0.514   0.505   0.487   0.451   0.467   0.468   0.444   0.464   0.502   0.516   0.515   0.549   0.577   0.613   0.566   0.592   0.589   0.613   0.617   0.616   0.569   0.615   0.597   0.630   0.611   0.599   0.592   0.581   0.606   0.545   0.581   0.561   0.584   0.571   0.569   0.558   0.524   0.532   0.530   0.548   0.545   0.508   0.501   0.540   0.519   0.549   0.530   0.555   0.581   0.553   0.551   0.558   0.571   0.566   0.548   0.545   0.546   0.541   0.560   0.558   0.566   0.573   0.580   0.571   0.582   0.573   0.579   0.530   0.529   0.518   0.514   0.461   0.502   0.525   0.507   0.563
   103.30    0.539   0.559   0.570   0.546   0.595   0.647   0.590   0.602   0.569   0.573   0.562   0.542   0.555   0.527   0.527   0.541   0.586   0.614   0.591   0.631   0.613   0.583   0.576   0.558   0.516   0.518   0.484   0.504   0.478   0.502   0.508   0.502   0.500   0.538   0.574   0.568   0.549   0.574   0.614   0.626   0.667   0.674   0.668   0.630   0.611   0.617   0.647   0.687   0.674   0.662   0.649   0.678   0.663   0.661   0.623   0.578   0.552   0.566   0.598   0.642   0.643   0.634   0.642   0.650   0.598   0.618   0.636   0.588   0.616   0.619   0.628   0.613   0.646   0.624   0.664   0.655   0.656   0.683   0.675   0.696   0.688   0.673   0.707   0.681   0.670   0.611   0.581   0.580   0.598   0.580   0.534   0.585   0.581   0.571   0.560   0.567   0.547   0.488   0.488   0.523   0.524   0.516   0.522   0.487   0.507   0.539   0.555   0.567   0.559   0.556   0.561   0.582   0.551   0.530   0.511   0.527   0.509   0.503   0.528   0.520   0.476   0.466   0.445   0.464   0.464   0.491   0.529   0.549   0.592   0.615   0.617   0.596   0.568   0.576   0.582   0.576   0.587   0.608   0.604   0.618   0.628   0.606   0.599   0.598   0.619   0.592   0.583   0.562   0.577   0.581   0.566   0.570   0.611   0.569   0.522   0.510   0.519   0.517   0.517   0.528   0.529   0.550   0.549   0.558   0.586   0.579   0.565   0.520   0.527   0.533   0.532   0.511   0.516   0.535   0.575   0.509   0.523   0.525   0.560   0.577   0.582   0.589   0.578   0.577   0.529   0.517   0.490   0.506   0.508   0.505   0.528   0.517   0.536
    94.00    0.559   0.544   0.539   0.572   0.623   0.612   0.618   0.619   0.589   0.580   0.588   0.546   0.542   0.548   0.540   0.566   0.609   0.636   0.594   0.647   0.604   0.562   0.563   0.545   0.496   0.529   0.508   0.515   0.508   0.529   0.499   0.469   0.486   0.514   0.537   0.547   0.560   0.572   0.627   0.684   0.665   0.687   0.712   0.642   0.636   0.645   0.622   0.668   0.655   0.678   0.675   0.683   0.680   0.695   0.657   0.631   0.632   0.586   0.594   0.614   0.624   0.631   0.625   0.637   0.628   0.621   0.578   0.564   0.555   0.599   0.641   0.624   0.606   0.612   0.636   0.676   0.689   0.679   0.714   0.687   0.658   0.664   0.661   0.665   0.590   0.585   0.576   0.544   0.586   0.542   0.553   0.587   0.562   0.589   0.559   0.536   0.508   0.502   0.458   0.498   0.531   0.554   0.522   0.549   0.511   0.562   0.546   0.526   0.560   0.563   0.565   0.557   0.502   0.524   0.530   0.516   0.511   0.513   0.496   0.519   0.515   0.464   0.466   0.478   0.497   0.514   0.568   0.525   0.551   0.604   0.610   0.555   0.533   0.564   0.566   0.627   0.631   0.637   0.636   0.626   0.622   0.615   0.584   0.574   0.588   0.585   0.591   0.586   0.590   0.559   0.559   0.558   0.593   0.562   0.567   0.518   0.531   0.527   0.530   0.543   0.532   0.579   0.554   0.545   0.581   0.566   0.568   0.530   0.528   0.535   0.525   0.504   0.507   0.527   0.576   0.526   0.523   0.523   0.511   0.556   0.565   0.601   0.547   0.549   0.508   0.536   0.547   0.536   0.547   0.524   0.520   0.507   0.545
    84.70    0.528   0.567   0.578   0.543   0.572   0.560   0.581   0.570   0.566   0.565   0.555   0.552   0.505   0.543   0.564   0.547   0.605   0.611   0.639   0.635   0.551   0.563   0.593   0.561   0.496   0.517   0.545   0.541   0.521   0.540   0.510   0.477   0.468   0.475   0.531   0.567   0.612   0.641   0.647   0.664   0.708   0.717   0.684   0.708   0.692   0.667   0.658   0.647   0.650   0.685   0.699   0.678   0.684   0.708   0.703   0.671   0.602   0.579   0.566   0.589   0.589   0.607   0.629   0.640   0.653   0.612   0.617   0.574   0.589   0.602   0.625   0.611   0.623   0.605   0.611   0.596   0.624   0.682   0.683   0.658   0.631   0.618   0.590   0.620   0.624   0.612   0.566   0.566   0.569   0.525   0.550   0.550   0.537   0.581   0.607   0.555   0.509   0.506   0.537   0.501   0.537   0.562   0.564   0.514   0.548   0.549   0.506   0.536   0.515   0.508   0.532   0.536   0.529   0.527   0.553   0.540   0.550   0.519   0.527   0.538   0.500   0.494   0.512   0.518   0.550   0.533   0.510   0.514   0.560   0.601   0.596   0.566   0.552   0.593   0.629   0.645   0.633   0.625   0.614   0.612   0.639   0.603   0.578   0.569   0.591   0.577   0.561   0.541   0.550   0.523   0.564   0.559   0.576   0.532   0.556   0.520   0.488   0.512   0.506   0.509   0.546   0.582   0.546   0.577   0.545   0.565   0.590   0.559   0.536   0.546   0.516   0.506   0.507   0.550   0.535   0.532   0.539   0.541   0.559   0.527   0.535   0.564   0.512   0.532   0.502   0.526   0.522   0.585   0.572   0.621   0.595   0.544   0.525
    75.40    0.545   0.585   0.529   0.537   0.569   0.574   0.582   0.551   0.577   0.537   0.532   0.539   0.521   0.545   0.543   0.550   0.586   0.608   0.632   0.584   0.598   0.570   0.560   0.521   0.543   0.540   0.561   0.543   0.541   0.563   0.535   0.499   0.466   0.472   0.595   0.590   0.616   0.642   0.671   0.676   0.719   0.753   0.757   0.763   0.689   0.692   0.665   0.611   0.651   0.655   0.654   0.636   0.658   0.635   0.669   0.658   0.603   0.592   0.572   0.580   0.606   0.623   0.657   0.649   0.618   0.660   0.631   0.592   0.565   0.550   0.633   0.580   0.592   0.602   0.565   0.583   0.630   0.655   0.670   0.662   0.655   0.607   0.607   0.593   0.588   0.592   0.573   0.540   0.520   0.560   0.533   0.521   0.511   0.557   0.575   0.577   0.552   0.498   0.512   0.525   0.530   0.529   0.538   0.531   0.505   0.523   0.539   0.533   0.543   0.550   0.507   0.521   0.538   0.515   0.529   0.527   0.532   0.558   0.519   0.522   0.520   0.521   0.529   0.548   0.522   0.504   0.514   0.532   0.495   0.565   0.570   0.585   0.527   0.566   0.605   0.654   0.643   0.635   0.604   0.586   0.578   0.578   0.573   0.565   0.535   0.554   0.526   0.491   0.533   0.555   0.544   0.557   0.525   0.544   0.508   0.493   0.504   0.481   0.496   0.492   0.532   0.569   0.537   0.560   0.566   0.575   0.567   0.584   0.566   0.554   0.564   0.544   0.542   0.548   0.554   0.539   0.547   0.526   0.554   0.507   0.510   0.538   0.524   0.515   0.559   0.575   0.570   0.542   0.572   0.602   0.605   0.585   0.538
    66.10    0.537   0.543   0.508   0.521   0.521   0.550   0.519   0.549   0.537   0.542   0.559   0.561   0.560   0.552   0.569   0.595   0.567   0.561   0.517   0.589   0.561   0.544   0.549   0.525   0.580   0.543   0.548   0.555   0.564   0.584   0.539   0.526   0.521   0.577   0.624   0.677   0.671   0.666   0.693   0.672   0.692   0.747   0.729   0.716   0.718   0.676   0.638   0.627   0.626   0.649   0.633   0.680   0.657   0.650   0.663   0.627   0.597   0.602   0.559   0.560   0.566   0.545   0.621   0.628   0.604   0.601   0.580   0.609   0.565   0.592   0.594   0.600   0.572   0.557   0.585   0.576   0.639   0.635   0.661   0.616   0.627   0.633   0.614   0.574   0.579   0.583   0.595   0.517   0.540   0.552   0.533   0.514   0.498   0.510   0.588   0.567   0.564   0.527   0.511   0.519   0.504   0.490   0.514   0.518   0.534   0.549   0.533   0.521   0.536   0.524   0.526   0.510   0.517   0.527   0.511   0.521   0.519   0.489   0.526   0.548   0.524   0.526   0.512   0.535   0.508   0.482   0.530   0.507   0.540   0.570   0.562   0.575   0.583   0.600   0.530   0.579   0.622   0.648   0.630   0.579   0.557   0.519   0.530   0.552   0.544   0.518   0.556   0.515   0.506   0.532   0.532   0.532   0.512   0.547   0.498   0.467   0.461   0.483   0.479   0.498   0.488   0.531   0.549   0.549   0.568   0.597   0.536   0.543   0.567   0.560   0.544   0.518   0.548   0.530   0.531   0.524   0.535   0.520   0.563   0.553   0.531   0.539   0.515   0.524   0.573   0.601   0.599   0.598   0.591   0.588   0.585   0.579   0.585
    56.80    0.488   0.528   0.516   0.534   0.495   0.512   0.531   0.555   0.539   0.537   0.564   0.561   0.556   0.556   0.553   0.578   0.544   0.553   0.531   0.541   0.541   0.527   0.529   0.539   0.536   0.537   0.562   0.554   0.554   0.537   0.571   0.592   0.603   0.596   0.691   0.671   0.681   0.674   0.692   0.672   0.688   0.711   0.709   0.716   0.695   0.685   0.660   0.599   0.599   0.603   0.668   0.668   0.667   0.645   0.625   0.638   0.640   0.631   0.619   0.571   0.563   0.572   0.556   0.604   0.617   0.600   0.532   0.566   0.590   0.575   0.610   0.613   0.590   0.592   0.601   0.642   0.649   0.674   0.651   0.608   0.642   0.592   0.572   0.579   0.558   0.547   0.552   0.512   0.539   0.540   0.529   0.531   0.508   0.538   0.520   0.507   0.509   0.519   0.505   0.492   0.486   0.480   0.505   0.520   0.558   0.549   0.506   0.532   0.546   0.525   0.515   0.516   0.562   0.572   0.528   0.511   0.485   0.451   0.497   0.509   0.522   0.540   0.521   0.561   0.527   0.508   0.518   0.513   0.492   0.537   0.573   0.534   0.581   0.588   0.579   0.573   0.598   0.607   0.617   0.530   0.573   0.537   0.559   0.556   0.529   0.511   0.553   0.515   0.498   0.500   0.498   0.531   0.533   0.492   0.502   0.457   0.465   0.481   0.480   0.491   0.487   0.533   0.572   0.571   0.566   0.562   0.553   0.562   0.576   0.554   0.536   0.546   0.512   0.518   0.548   0.518   0.548   0.511   0.556   0.562   0.545   0.529   0.528   0.525   0.552   0.539   0.561   0.558   0.582   0.581   0.567   0.531   0.548
    47.50    0.454   0.510   0.519   0.487   0.506   0.507   0.508   0.529   0.515   0.542   0.545   0.543   0.569   0.567   0.617   0.533   0.527   0.518   0.507   0.513   0.531   0.506   0.542   0.557   0.529   0.519   0.531   0.573   0.522   0.563   0.560   0.605   0.615   0.647   0.665   0.655   0.701   0.668   0.691   0.700   0.695   0.732   0.695   0.696   0.646   0.638   0.637   0.647   0.617   0.603   0.653   0.681   0.637   0.601   0.612   0.590   0.604   0.634   0.628   0.602   0.616   0.598   0.551   0.557   0.590   0.614   0.576   0.577   0.601   0.571   0.622   0.624   0.609   0.582   0.619   0.623   0.637   0.630   0.580   0.613   0.622   0.583   0.584   0.561   0.574   0.555   0.566   0.577   0.520   0.578   0.572   0.558   0.554   0.542   0.538   0.500   0.487   0.509   0.526   0.523   0.542   0.511   0.506   0.556   0.563   0.546   0.527   0.521   0.554   0.546   0.532   0.563   0.537   0.531   0.521   0.516   0.504   0.499   0.483   0.502   0.557   0.543   0.531   0.519   0.540   0.555   0.546   0.557   0.550   0.543   0.564   0.563   0.577   0.596   0.598   0.587   0.603   0.584   0.595   0.563   0.521   0.538   0.561   0.563   0.509   0.523   0.500   0.455   0.469   0.480   0.475   0.500   0.498   0.467   0.484   0.483   0.498   0.499   0.489   0.499   0.482   0.497   0.514   0.569   0.556   0.546   0.553   0.564   0.602   0.532   0.542   0.557   0.532   0.527   0.540   0.523   0.507   0.526   0.572   0.565   0.546   0.536   0.494   0.506   0.538   0.539   0.547   0.535   0.584   0.568   0.572   0.554   0.562
    38.20    0.487   0.487   0.519   0.546   0.527   0.506   0.530   0.522   0.513   0.521   0.566   0.509   0.567   0.570   0.573   0.562   0.549   0.517   0.514   0.540   0.542   0.577   0.537   0.539   0.539   0.547   0.539   0.564   0.546   0.561   0.573   0.628   0.647   0.658   0.673   0.691   0.723   0.715   0.702   0.672   0.703   0.693   0.698   0.673   0.632   0.648   0.637   0.638   0.674   0.636   0.634   0.642   0.684   0.660   0.618   0.617   0.625   0.600   0.650   0.637   0.660   0.602   0.585   0.584   0.567   0.595   0.599   0.611   0.611   0.615   0.627   0.600   0.628   0.600   0.592   0.610   0.602   0.602   0.573   0.576   0.572   0.611   0.617   0.601   0.595   0.583   0.554   0.566   0.554   0.545   0.591   0.573   0.558   0.557   0.559   0.538   0.464   0.491   0.517   0.523   0.550   0.537   0.540   0.556   0.578   0.543   0.544   0.531   0.560   0.540   0.544   0.522   0.518   0.505   0.528   0.508   0.481   0.518   0.523   0.505   0.526   0.523   0.522   0.536   0.517   0.543   0.568   0.551   0.551   0.534   0.561   0.568   0.585   0.580   0.592   0.593   0.631   0.587   0.562   0.544   0.540   0.522   0.532   0.545   0.491   0.500   0.501   0.461   0.445   0.475   0.485   0.527   0.525   0.491   0.473   0.482   0.501   0.538   0.497   0.503   0.509   0.490   0.529   0.548   0.599   0.559   0.571   0.587   0.544   0.545   0.568   0.553   0.570   0.551   0.568   0.551   0.554   0.531   0.580   0.556   0.522   0.502   0.501   0.487   0.515   0.563   0.568   0.565   0.554   0.535   0.537   0.549   0.553
    28.90    0.497   0.485   0.474   0.531   0.558   0.565   0.516   0.516   0.500   0.503   0.547   0.526   0.526   0.557   0.524   0.536   0.560   0.548   0.563   0.607   0.588   0.544   0.538   0.548   0.560   0.527   0.542   0.566   0.584   0.581   0.587   0.622   0.627   0.662   0.682   0.692   0.698   0.727   0.692   0.651   0.672   0.636   0.650   0.613   0.613   0.627   0.621   0.652   0.653   0.683   0.683   0.694   0.679   0.631   0.638   0.611   0.617   0.597   0.600   0.644   0.666   0.648   0.599   0.609   0.581   0.609   0.623   0.637   0.658   0.641   0.592   0.628   0.575   0.588   0.593   0.597   0.591   0.574   0.609   0.579   0.548   0.574   0.624   0.627   0.625   0.618   0.577   0.558   0.574   0.536   0.569   0.585   0.569   0.584   0.557   0.558   0.538   0.557   0.547   0.521   0.542   0.548   0.553   0.532   0.598   0.516   0.523   0.536   0.558   0.516   0.540   0.515   0.521   0.531   0.546   0.520   0.494   0.512   0.524   0.553   0.562   0.558   0.578   0.549   0.520   0.515   0.555   0.574   0.594   0.548   0.580   0.597   0.582   0.553   0.551   0.592   0.591   0.585   0.580   0.550   0.537   0.549   0.529   0.506   0.494   0.491   0.501   0.468   0.464   0.495   0.508   0.538   0.539   0.476   0.479   0.506   0.502   0.500   0.497   0.543   0.517   0.514   0.506   0.539   0.543   0.567   0.556   0.569   0.544   0.532   0.512   0.569   0.500   0.537   0.540   0.562   0.548   0.546   0.560   0.534   0.544   0.489   0.491   0.499   0.546   0.550   0.563   0.543   0.547   0.558   0.548   0.524   0.539
    19.60    0.512   0.523   0.567   0.566   0.568   0.532   0.560   0.516   0.482   0.489   0.502   0.494   0.534   0.515   0.528   0.522   0.562   0.570   0.590   0.565   0.584   0.577   0.548   0.531   0.529   0.546   0.551   0.603   0.579   0.575   0.622   0.630   0.716   0.674   0.658   0.649   0.677   0.691   0.665   0.650   0.648   0.634   0.639   0.618   0.626   0.634   0.636   0.639   0.658   0.663   0.678   0.677   0.643   0.619   0.648   0.630   0.584   0.595   0.614   0.631   0.659   0.628   0.630   0.586   0.581   0.613   0.615   0.636   0.620   0.604   0.638   0.646   0.649   0.641   0.640   0.638   0.631   0.612   0.589   0.562   0.552   0.611   0.647   0.634   0.627   0.618   0.614   0.591   0.569   0.552   0.587   0.557   0.616   0.624   0.574   0.596   0.597   0.593   0.606   0.586   0.564   0.532   0.517   0.544   0.578   0.540   0.522   0.522   0.554   0.509   0.530   0.543   0.514   0.519   0.545   0.536   0.561   0.560   0.531   0.526   0.565   0.543   0.540   0.572   0.577   0.564   0.564   0.569   0.576   0.579   0.591   0.592   0.559   0.536   0.555   0.587   0.578   0.564   0.548   0.540   0.530   0.531   0.482   0.491   0.506   0.485   0.500   0.489   0.501   0.500   0.515   0.523   0.520   0.478   0.502   0.502   0.512   0.538   0.536   0.555   0.551   0.560   0.531   0.542   0.567   0.552   0.549   0.542   0.545   0.524   0.486   0.518   0.540   0.539   0.578   0.563   0.564   0.517   0.522   0.507   0.460   0.488   0.518   0.520   0.514   0.530   0.559   0.509   0.523   0.539   0.550   0.564   0.557
    10.30    0.536   0.551   0.553   0.531   0.552   0.572   0.559   0.568   0.518   0.509   0.525   0.523   0.516   0.539   0.520   0.542   0.577   0.618   0.616   0.604   0.598   0.556   0.564   0.562   0.576   0.563   0.602   0.610   0.578   0.604   0.599   0.675   0.736   0.731   0.706   0.664   0.671   0.637   0.649   0.672   0.657   0.684   0.630   0.623   0.596   0.629   0.621   0.630   0.629   0.644   0.679   0.673   0.650   0.612   0.636   0.621   0.561   0.566   0.588   0.598   0.612   0.622   0.632   0.598   0.596   0.609   0.621   0.637   0.644   0.591   0.626   0.623   0.682   0.654   0.640   0.644   0.651   0.628   0.596   0.603   0.566   0.604   0.643   0.676   0.637   0.622   0.607   0.594   0.589   0.590   0.593   0.583   0.597   0.602   0.583   0.605   0.622   0.610   0.587   0.617   0.552   0.532   0.565   0.545   0.514   0.511   0.534   0.528   0.544   0.554   0.541   0.549   0.529   0.551   0.564   0.556   0.561   0.527   0.523   0.552   0.541   0.528   0.545   0.543   0.537   0.558   0.561   0.575   0.583   0.586   0.610   0.574   0.588   0.565   0.557   0.587   0.597   0.567   0.572   0.536   0.504   0.504   0.443   0.467   0.494   0.494   0.473   0.479   0.490   0.528   0.557   0.566   0.556   0.554   0.563   0.517   0.548   0.557   0.560   0.520   0.592   0.594   0.591   0.576   0.526   0.528   0.526   0.560   0.548   0.556   0.537   0.531   0.569   0.550   0.563   0.534   0.554   0.526   0.508   0.489   0.455   0.497   0.491   0.505   0.487   0.518   0.538   0.523   0.515   0.542   0.524   0.549   0.535
     1.00    0.573   0.550   0.564   0.529   0.556   0.583   0.608   0.553   0.521   0.512   0.526   0.536   0.531   0.531   0.559   0.567   0.596   0.629   0.631   0.564   0.585   0.591   0.544   0.503   0.553   0.550   0.565   0.603   0.599   0.590   0.628   0.663   0.668   0.724   0.727   0.699   0.676   0.625   0.617   0.670   0.669   0.674   0.641   0.672   0.614   0.626   0.629   0.635   0.657   0.662   0.663   0.635   0.613   0.596   0.637   0.620   0.563   0.600   0.590   0.599   0.598   0.594   0.640   0.598   0.624   0.624   0.611   0.636   0.660   0.650   0.626   0.611   0.628   0.661   0.659   0.690   0.666   0.641   0.623   0.615   0.598   0.646   0.626   0.634   0.630   0.657   0.630   0.612   0.580   0.580   0.579   0.591   0.637   0.626   0.577   0.591   0.620   0.596   0.610   0.562   0.567   0.546   0.535   0.517   0.505   0.513   0.543   0.526   0.504   0.520   0.551   0.512   0.551   0.525   0.567   0.558   0.583   0.582   0.578   0.563   0.510   0.493   0.544   0.592   0.529   0.567   0.586   0.575   0.595   0.593   0.574   0.594   0.627   0.616   0.615   0.573   0.613   0.597   0.548   0.541   0.514   0.487   0.475   0.470   0.460   0.514   0.454   0.470   0.490   0.501   0.565   0.568   0.542   0.525   0.535   0.534   0.548   0.568   0.584   0.558   0.575   0.619   0.595   0.544   0.567   0.518   0.516   0.546   0.536   0.522   0.528   0.505   0.525   0.564   0.541   0.526   0.563   0.531   0.512   0.489   0.487   0.502   0.496   0.450   0.490   0.508   0.544   0.502   0.562   0.564   0.599   0.559   0.566

   Height   Standard deviation at grid points for the v component:
   354.40    0.469   0.465   0.465   0.461   0.461   0.468   0.467   0.453   0.459   0.475   0.477   0.464   0.461   0.464   0.490   0.463   0.444   0.425   0.444   0.447   0.448   0.426   0.372   0.383   0.424   0.435   0.458   0.453   0.486   0.476   0.488   0.436   0.447   0.444   0.448   0.471   0.463   0.467   0.460   0.462   0.476   0.469   0.467   0.462   0.483   0.464   0.459   0.459   0.466   0.453   0.480   0.501   0.507   0.509   0.502   0.474   0.475   0.453   0.445   0.468   0.480   0.480   0.480   0.500   0.503   0.493   0.491   0.504   0.497   0.491   0.479   0.464   0.484   0.506   0.492   0.509   0.493   0.496   0.514   0.495   0.471   0.451   0.434   0.427   0.420   0.429   0.441   0.434   0.418   0.429   0.408   0.431   0.448   0.448   0.443   0.456   0.458   0.482   0.484   0.483   0.462   0.442   0.457   0.440   0.435   0.426   0.421   0.420   0.435   0.417   0.447   0.477   0.490   0.447   0.460   0.415   0.427   0.450   0.471   0.463   0.452   0.446   0.450   0.473   0.453   0.468   0.461   0.472   0.487   0.502   0.487   0.506   0.471   0.483   0.489   0.486   0.461   0.462   0.464   0.478   0.508   0.488   0.491   0.500   0.500   0.471   0.478   0.456   0.421   0.438   0.445   0.441   0.425   0.451   0.452   0.464   0.461   0.485   0.460   0.463   0.469   0.491   0.484   0.484   0.462   0.447   0.470   0.476   0.463   0.498   0.487   0.479   0.483   0.457   0.454   0.471   0.480   0.483   0.475   0.473   0.437   0.416   0.411   0.431   0.419   0.437   0.443   0.435   0.457   0.456   0.445   0.466   0.477
   345.10    0.469   0.476   0.462   0.477   0.462   0.468   0.461   0.461   0.448   0.443   0.448   0.438   0.454   0.451   0.450   0.461   0.461   0.467   0.449   0.425   0.450   0.446   0.417   0.394   0.412   0.444   0.445   0.454   0.487   0.477   0.483   0.459   0.436   0.425   0.453   0.444   0.451   0.445   0.459   0.443   0.462   0.474   0.461   0.445   0.468   0.454   0.463   0.471   0.465   0.464   0.469   0.452   0.490   0.490   0.507   0.466   0.462   0.459   0.448   0.460   0.475   0.492   0.491   0.503   0.468   0.474   0.482   0.507   0.464   0.476   0.502   0.473   0.490   0.505   0.484   0.495   0.496   0.473   0.513   0.495   0.486   0.475   0.455   0.432   0.393   0.411   0.416   0.403   0.415   0.417   0.412   0.420   0.452   0.462   0.442   0.442   0.473   0.471   0.481   0.496   0.465   0.459   0.438   0.437   0.445   0.435   0.410   0.419   0.432   0.438   0.465   0.462   0.467   0.442   0.430   0.434   0.411   0.442   0.464   0.463   0.469   0.486   0.485   0.463   0.462   0.477   0.471   0.476   0.488   0.501   0.493   0.494   0.500   0.497   0.510   0.491   0.470   0.494   0.480   0.501   0.501   0.482   0.502   0.484   0.498   0.490   0.475   0.482   0.455   0.461   0.461   0.445   0.444   0.451   0.455   0.482   0.465   0.459   0.471   0.463   0.465   0.492   0.484   0.478   0.470   0.492   0.488   0.503   0.486   0.506   0.493   0.478   0.488   0.457   0.469   0.453   0.482   0.484   0.480   0.457   0.449   0.417   0.423   0.423   0.442   0.422   0.436   0.449   0.465   0.438   0.451   0.456   0.480
   335.80    0.476   0.456   0.451   0.474   0.467   0.445   0.440   0.446   0.449   0.437   0.414   0.440   0.439   0.443   0.440   0.439   0.440   0.463   0.456   0.449   0.441   0.436   0.406   0.418   0.422   0.441   0.456   0.452   0.459   0.498   0.485   0.469   0.444   0.448   0.417   0.420   0.440   0.432   0.438   0.443   0.449   0.455   0.473   0.466   0.466   0.452   0.470   0.460   0.491   0.519   0.480   0.510   0.497   0.490   0.499   0.492   0.472   0.448   0.453   0.454   0.440   0.478   0.482   0.503   0.503   0.487   0.481   0.496   0.465   0.483   0.470   0.482   0.465   0.470   0.461   0.481   0.473   0.485   0.488   0.477   0.489   0.491   0.474   0.450   0.404   0.393   0.410   0.393   0.413   0.417   0.422   0.427   0.447   0.459   0.467   0.475   0.484   0.481   0.477   0.496   0.479   0.455   0.442   0.451   0.425   0.427   0.422   0.441   0.456   0.451   0.439   0.449   0.467   0.459   0.425   0.442   0.456   0.450   0.463   0.473   0.487   0.496   0.485   0.465   0.480   0.475   0.507   0.488   0.489   0.487   0.501   0.505   0.484   0.498   0.514   0.498   0.486   0.498   0.485   0.485   0.499   0.481   0.493   0.507   0.470   0.489   0.496   0.465   0.459   0.469   0.435   0.440   0.456   0.469   0.463   0.457   0.463   0.466   0.465   0.461   0.446   0.493   0.487   0.484   0.469   0.484   0.497   0.482   0.493   0.513   0.517   0.505   0.501   0.484   0.466   0.487   0.476   0.476   0.491   0.487   0.449   0.432   0.454   0.458   0.454   0.435   0.439   0.452   0.456   0.458   0.460   0.452   0.475
   326.50    0.466   0.468   0.466   0.479   0.487   0.463   0.432   0.443   0.459   0.440   0.446   0.445   0.439   0.463   0.423   0.431   0.467   0.474   0.450   0.455   0.453   0.430   0.412   0.423   0.423   0.432   0.449   0.450   0.466   0.488   0.491   0.474   0.465   0.446   0.437   0.418   0.427   0.437   0.428   0.461   0.436   0.450   0.453   0.444   0.450   0.458   0.460   0.479   0.508   0.490   0.506   0.519   0.515   0.495   0.498   0.502   0.470   0.471   0.437   0.448   0.447   0.437   0.463   0.459   0.442   0.460   0.443   0.483   0.491   0.473   0.490   0.473   0.456   0.469   0.466   0.472   0.490   0.485   0.504   0.490   0.493   0.477   0.458   0.480   0.423   0.407   0.418   0.436   0.432   0.411   0.408   0.417   0.449   0.464   0.451   0.468   0.466   0.469   0.494   0.495   0.474   0.461   0.483   0.447   0.451   0.441   0.461   0.461   0.462   0.458   0.457   0.448   0.473   0.451   0.428   0.437   0.477   0.449   0.491   0.528   0.504   0.472   0.499   0.478   0.477   0.492   0.494   0.490   0.472   0.497   0.504   0.500   0.491   0.483   0.479   0.484   0.515   0.517   0.497   0.476   0.499   0.478   0.486   0.501   0.479   0.486   0.499   0.482   0.459   0.461   0.438   0.442   0.484   0.454   0.461   0.451   0.487   0.476   0.453   0.467   0.474   0.528   0.517   0.518   0.518   0.513   0.480   0.497   0.491   0.489   0.474   0.482   0.486   0.458   0.462   0.467   0.479   0.485   0.483   0.471   0.464   0.468   0.448   0.427   0.425   0.437   0.438   0.449   0.453   0.461   0.480   0.468   0.465
[...]
   103.30    0.294   0.298   0.293   0.295   0.291   0.285   0.291   0.282   0.281   0.284   0.284   0.285   0.284   0.279   0.281   0.280   0.282   0.276   0.288   0.281   0.290   0.295   0.299   0.298   0.298   0.288   0.301   0.292   0.295   0.284   0.290   0.283   0.272   0.277   0.273   0.283   0.283   0.286   0.289   0.294   0.280   0.280   0.278   0.280   0.282   0.291   0.286   0.288   0.284   0.291   0.281   0.285   0.288   0.295   0.287   0.290   0.281   0.281   0.279   0.278   0.292   0.290   0.279   0.287   0.292   0.279   0.272   0.278   0.287   0.282   0.282   0.291   0.292   0.286   0.290   0.278   0.285   0.295   0.280   0.275   0.288   0.295   0.284   0.286   0.292   0.289   0.286   0.280   0.287   0.288   0.283   0.280   0.279   0.295   0.292   0.279   0.284   0.283   0.273   0.279   0.277   0.275   0.273   0.278   0.274   0.285   0.278   0.278   0.276   0.278   0.286   0.288   0.283   0.290   0.281   0.275   0.289   0.282   0.272   0.282   0.274   0.281   0.272   0.279   0.284   0.283   0.292   0.280   0.285   0.283   0.272   0.281   0.270   0.281   0.276   0.273   0.263   0.262   0.267   0.265   0.277   0.283   0.281   0.288   0.275   0.271   0.281   0.283   0.290   0.293   0.297   0.286   0.280   0.277   0.271   0.283   0.282   0.287   0.291   0.297   0.288   0.300   0.296   0.297   0.290   0.296   0.292   0.293   0.285   0.275   0.282   0.282   0.294   0.292   0.301   0.292   0.299   0.302   0.311   0.302   0.289   0.286   0.289   0.294   0.293   0.296   0.293   0.295   0.297   0.307   0.296   0.287   0.285
    94.00    0.294   0.289   0.287   0.289   0.291   0.294   0.294   0.279   0.271   0.276   0.276   0.280   0.276   0.285   0.283   0.276   0.283   0.279   0.288   0.288   0.289   0.292   0.294   0.293   0.289   0.288   0.287   0.290   0.287   0.287   0.285   0.280   0.275   0.273   0.273   0.276   0.279   0.294   0.293   0.288   0.276   0.277   0.295   0.284   0.288   0.288   0.287   0.285   0.284   0.280   0.290   0.290   0.288   0.287   0.287   0.288   0.288   0.279   0.286   0.279   0.284   0.281   0.274   0.278   0.281   0.283   0.273   0.277   0.289   0.286   0.285   0.294   0.290   0.285   0.283   0.282   0.279   0.283   0.283   0.281   0.290   0.291   0.293   0.290   0.293   0.289   0.289   0.293   0.286   0.285   0.278   0.283   0.273   0.279   0.280   0.271   0.276   0.271   0.272   0.274   0.270   0.269   0.279   0.276   0.272   0.284   0.278   0.271   0.273   0.279   0.276   0.289   0.288   0.288   0.278   0.286   0.287   0.282   0.291   0.277   0.282   0.283   0.274   0.288   0.281   0.281   0.284   0.286   0.277   0.278   0.283   0.280   0.285   0.286   0.272   0.271   0.268   0.272   0.270   0.271   0.275   0.274   0.283   0.283   0.281   0.284   0.283   0.282   0.283   0.299   0.292   0.287   0.283   0.288   0.270   0.281   0.286   0.283   0.291   0.297   0.289   0.298   0.301   0.301   0.295   0.295   0.299   0.292   0.282   0.283   0.284   0.288   0.292   0.294   0.284   0.295   0.302   0.304   0.306   0.299   0.290   0.280   0.294   0.297   0.301   0.287   0.295   0.299   0.298   0.300   0.290   0.282   0.284
    84.70    0.289   0.283   0.284   0.281   0.288   0.282   0.290   0.281   0.275   0.269   0.282   0.278   0.277   0.273   0.276   0.281   0.285   0.279   0.287   0.283   0.288   0.286   0.286   0.290   0.288   0.279   0.288   0.278   0.276   0.281   0.283   0.287   0.291   0.267   0.281   0.283   0.286   0.279   0.295   0.288   0.282   0.292   0.283   0.291   0.289   0.281   0.282   0.285   0.294   0.291   0.291   0.289   0.285   0.286   0.285   0.284   0.290   0.292   0.293   0.287   0.286   0.273   0.282   0.288   0.287   0.290   0.286   0.279   0.281   0.286   0.284   0.290   0.287   0.286   0.283   0.277   0.272   0.278   0.280   0.282   0.289   0.296   0.287   0.287   0.289   0.286   0.291   0.289   0.286   0.288   0.276   0.267   0.267   0.275   0.281   0.289   0.279   0.267   0.280   0.281   0.269   0.273   0.276   0.288   0.285   0.289   0.290   0.281   0.273   0.275   0.269   0.278   0.282   0.281   0.283   0.289   0.292   0.292   0.276   0.279   0.279   0.284   0.281   0.281   0.282   0.280   0.281   0.276   0.268   0.273   0.273   0.287   0.291   0.285   0.278   0.277   0.269   0.264   0.273   0.265   0.270   0.273   0.280   0.288   0.289   0.280   0.292   0.285   0.291   0.293   0.282   0.282   0.283   0.293   0.286   0.285   0.280   0.293   0.287   0.288   0.291   0.295   0.297   0.293   0.288   0.296   0.297   0.290   0.284   0.275   0.289   0.288   0.289   0.287   0.292   0.300   0.299   0.298   0.299   0.290   0.286   0.283   0.290   0.294   0.289   0.299   0.297   0.287   0.293   0.302   0.286   0.289   0.292
    75.40    0.282   0.285   0.280   0.285   0.288   0.280   0.279   0.283   0.272   0.270   0.279   0.272   0.273   0.275   0.282   0.280   0.277   0.275   0.274   0.277   0.281   0.287   0.282   0.288   0.283   0.279   0.273   0.269   0.281   0.279   0.276   0.280   0.288   0.274   0.273   0.283   0.278   0.284   0.285   0.288   0.288   0.291   0.289   0.287   0.296   0.299   0.294   0.284   0.290   0.284   0.288   0.288   0.279   0.286   0.275   0.276   0.285   0.287   0.289   0.287   0.295   0.282   0.277   0.281   0.280   0.286   0.283   0.284   0.292   0.291   0.291   0.294   0.293   0.294   0.281   0.277   0.267   0.278   0.283   0.290   0.288   0.287   0.285   0.275   0.275   0.274   0.286   0.281   0.284   0.279   0.285   0.274   0.277   0.271   0.280   0.275   0.281   0.268   0.275   0.282   0.281   0.277   0.280   0.285   0.281   0.289   0.286   0.288   0.276   0.274   0.277   0.275   0.277   0.293   0.291   0.283   0.281   0.290   0.293   0.288   0.285   0.292   0.290   0.281   0.278   0.287   0.284   0.280   0.277   0.276   0.271   0.284   0.280   0.279   0.285   0.273   0.276   0.279   0.282   0.274   0.280   0.282   0.294   0.287   0.289   0.283   0.283   0.291   0.282   0.283   0.280   0.283   0.278   0.286   0.281   0.285   0.271   0.281   0.286   0.286   0.283   0.296   0.295   0.295   0.294   0.300   0.291   0.302   0.286   0.285   0.291   0.279   0.287   0.283   0.292   0.297   0.293   0.300   0.291   0.285   0.288   0.282   0.286   0.293   0.297   0.295   0.297   0.291   0.297   0.298   0.286   0.289   0.287
    66.10    0.285   0.286   0.284   0.278   0.283   0.273   0.280   0.280   0.282   0.284   0.279   0.270   0.276   0.278   0.283   0.274   0.274   0.278   0.284   0.279   0.279   0.283   0.275   0.284   0.285   0.286   0.284   0.277   0.273   0.275   0.275   0.276   0.279   0.274   0.280   0.284   0.291   0.285   0.286   0.285   0.284   0.292   0.298   0.286   0.295   0.291   0.280   0.286   0.291   0.288   0.288   0.281   0.280   0.280   0.280   0.288   0.286   0.285   0.286   0.281   0.280   0.285   0.287   0.279   0.288   0.289   0.280   0.285   0.302   0.299   0.297   0.295   0.297   0.294   0.289   0.291   0.282   0.283   0.286   0.290   0.275   0.285   0.279   0.271   0.276   0.272   0.277   0.281   0.281   0.285   0.288   0.280   0.279   0.274   0.283   0.282   0.271   0.275   0.279   0.274   0.285   0.278   0.271   0.285   0.288   0.288   0.290   0.286   0.267   0.274   0.274   0.273   0.276   0.281   0.284   0.282   0.282   0.282   0.293   0.288   0.272   0.266   0.282   0.284   0.281   0.279   0.291   0.288   0.283   0.284   0.288   0.286   0.285   0.281   0.290   0.283   0.286   0.278   0.278   0.284   0.287   0.290   0.285   0.287   0.289   0.301   0.291   0.292   0.287   0.280   0.277   0.293   0.287   0.278   0.288   0.291   0.286   0.279   0.278   0.284   0.282   0.288   0.296   0.290   0.294   0.294   0.295   0.296   0.294   0.291   0.283   0.284   0.292   0.291   0.306   0.303   0.300   0.295   0.293   0.278   0.282   0.282   0.285   0.287   0.291   0.292   0.296   0.275   0.290   0.297   0.299   0.291   0.292
    56.80    0.284   0.287   0.271   0.277   0.281   0.279   0.283   0.277   0.288   0.285   0.270   0.277   0.280   0.281   0.280   0.276   0.274   0.278   0.278   0.280   0.277   0.267   0.274   0.281   0.283   0.286   0.279   0.282   0.283   0.275   0.276   0.275   0.276   0.287   0.279   0.284   0.283   0.284   0.274   0.282   0.288   0.293   0.291   0.287   0.285   0.291   0.297   0.302   0.293   0.292   0.296   0.286   0.282   0.274   0.274   0.284   0.282   0.275   0.282   0.266   0.274   0.280   0.281   0.280   0.292   0.295   0.281   0.292   0.292   0.288   0.299   0.299   0.300   0.301   0.296   0.287   0.293   0.286   0.286   0.286   0.284   0.282   0.283   0.276   0.275   0.275   0.279   0.280   0.279   0.288   0.284   0.281   0.284   0.283   0.288   0.282   0.287   0.283   0.276   0.273   0.272   0.271   0.272   0.285   0.281   0.289   0.294   0.287   0.277   0.266   0.265   0.271   0.269   0.279   0.276   0.274   0.271   0.274   0.274   0.283   0.265   0.270   0.280   0.278   0.278   0.286   0.291   0.295   0.290   0.283   0.288   0.282   0.283   0.290   0.285   0.283   0.283   0.284   0.286   0.288   0.290   0.296   0.293   0.295   0.289   0.296   0.292   0.289   0.286   0.283   0.287   0.295   0.285   0.288   0.296   0.293   0.283   0.283   0.279   0.286   0.284   0.289   0.291   0.294   0.301   0.291   0.292   0.296   0.301   0.298   0.290   0.284   0.286   0.298   0.304   0.292   0.290   0.291   0.290   0.284   0.275   0.289   0.295   0.289   0.283   0.297   0.300   0.284   0.297   0.292   0.294   0.297   0.296
    47.50    0.283   0.284   0.276   0.270   0.279   0.273   0.275   0.282   0.276   0.276   0.279   0.280   0.281   0.287   0.280   0.280   0.286   0.275   0.275   0.279   0.277   0.264   0.267   0.284   0.281   0.274   0.273   0.272   0.278   0.282   0.282   0.280   0.279   0.289   0.281   0.281   0.285   0.280   0.273   0.278   0.283   0.276   0.276   0.277   0.278   0.289   0.303   0.307   0.294   0.294   0.292   0.284   0.289   0.285   0.273   0.278   0.275   0.276   0.279   0.275   0.276   0.276   0.278   0.272   0.287   0.295   0.290   0.285   0.288   0.293   0.296   0.299   0.293   0.300   0.294   0.291   0.292   0.283   0.282   0.286   0.279   0.282   0.276   0.283   0.283   0.276   0.282   0.274   0.279   0.291   0.294   0.287   0.283   0.293   0.284   0.281   0.284   0.278   0.274   0.270   0.275   0.279   0.286   0.277   0.280   0.285   0.289   0.281   0.274   0.268   0.272   0.276   0.274   0.271   0.270   0.267   0.278   0.279   0.282   0.282   0.286   0.277   0.279   0.281   0.282   0.281   0.291   0.277   0.287   0.285   0.288   0.285   0.291   0.285   0.287   0.278   0.282   0.294   0.293   0.297   0.296   0.293   0.292   0.296   0.302   0.293   0.291   0.287   0.288   0.282   0.290   0.296   0.295   0.298   0.290   0.286   0.288   0.285   0.281   0.293   0.292   0.296   0.291   0.304   0.297   0.291   0.302   0.296   0.304   0.295   0.296   0.294   0.285   0.294   0.301   0.301   0.287   0.293   0.289   0.290   0.278   0.293   0.297   0.291   0.286   0.294   0.293   0.295   0.300   0.288   0.287   0.294   0.302
    38.20    0.278   0.280   0.285   0.277   0.279   0.283   0.273   0.280   0.288   0.286   0.291   0.287   0.297   0.290   0.283   0.288   0.281   0.285   0.283   0.275   0.268   0.270   0.275   0.279   0.277   0.273   0.267   0.275   0.276   0.273   0.278   0.281   0.276   0.274   0.283   0.279   0.279   0.279   0.279   0.274   0.266   0.266   0.269   0.280   0.282   0.287   0.294   0.291   0.289   0.281   0.278   0.275   0.284   0.291   0.285   0.288   0.276   0.282   0.276   0.272   0.280   0.278   0.277   0.274   0.288   0.291   0.281   0.283   0.279   0.267   0.288   0.296   0.305   0.305   0.294   0.301   0.297   0.281   0.276   0.277   0.280   0.286   0.281   0.278   0.286   0.281   0.275   0.271   0.268   0.277   0.282   0.287   0.282   0.278   0.279   0.283   0.279   0.278   0.280   0.287   0.277   0.272   0.268   0.280   0.286   0.280   0.277   0.279   0.269   0.276   0.281   0.280   0.273   0.274   0.275   0.277   0.281   0.281   0.275   0.284   0.278   0.283   0.275   0.280   0.278   0.276   0.283   0.281   0.275   0.276   0.279   0.281   0.286   0.292   0.285   0.278   0.278   0.306   0.301   0.302   0.296   0.292   0.294   0.294   0.298   0.297   0.291   0.289   0.291   0.281   0.291   0.294   0.296   0.289   0.298   0.290   0.282   0.294   0.286   0.290   0.286   0.289   0.296   0.299   0.304   0.294   0.297   0.307   0.305   0.307   0.297   0.289   0.296   0.294   0.292   0.292   0.284   0.284   0.287   0.283   0.284   0.283   0.283   0.285   0.285   0.283   0.284   0.286   0.292   0.279   0.283   0.299   0.293
    28.90    0.277   0.273   0.279   0.279   0.277   0.290   0.279   0.280   0.284   0.290   0.288   0.285   0.293   0.286   0.293   0.285   0.286   0.285   0.290   0.276   0.273   0.274   0.272   0.279   0.266   0.274   0.273   0.281   0.274   0.273   0.284   0.273   0.278   0.279   0.288   0.293   0.271   0.271   0.272   0.272   0.275   0.268   0.272   0.273   0.281   0.282   0.290   0.285   0.280   0.274   0.280   0.281   0.276   0.284   0.279   0.280   0.284   0.278   0.278   0.276   0.276   0.272   0.275   0.285   0.290   0.285   0.278   0.286   0.275   0.273   0.285   0.286   0.297   0.295   0.291   0.294   0.290   0.283   0.280   0.284   0.279   0.285   0.280   0.281   0.283   0.277   0.277   0.275   0.274   0.278   0.294   0.286   0.286   0.285   0.277   0.282   0.283   0.284   0.271   0.278   0.281   0.269   0.277   0.282   0.278   0.280   0.279   0.283   0.287   0.284   0.285   0.288   0.279   0.281   0.280   0.274   0.285   0.281   0.278   0.281   0.275   0.282   0.287   0.291   0.280   0.282   0.283   0.282   0.281   0.272   0.273   0.276   0.280   0.289   0.285   0.285   0.286   0.301   0.295   0.297   0.303   0.296   0.294   0.295   0.294   0.293   0.291   0.287   0.285   0.300   0.293   0.292   0.296   0.294   0.306   0.303   0.294   0.293   0.294   0.286   0.282   0.286   0.297   0.297   0.298   0.300   0.301   0.302   0.305   0.297   0.295   0.293   0.299   0.294   0.295   0.276   0.277   0.279   0.284   0.281   0.279   0.274   0.290   0.285   0.285   0.284   0.278   0.283   0.287   0.283   0.283   0.291   0.275
    19.60    0.278   0.283   0.276   0.275   0.282   0.285   0.290   0.279   0.286   0.284   0.286   0.275   0.284   0.281   0.291   0.282   0.290   0.302   0.282   0.277   0.272   0.271   0.262   0.276   0.278   0.269   0.272   0.273   0.282   0.275   0.282   0.285   0.283   0.288   0.288   0.291   0.283   0.279   0.275   0.275   0.273   0.267   0.268   0.279   0.291   0.280   0.292   0.278   0.276   0.277   0.272   0.274   0.265   0.269   0.278   0.280   0.279   0.280   0.275   0.268   0.275   0.275   0.272   0.286   0.288   0.288   0.290   0.287   0.282   0.270   0.275   0.282   0.285   0.292   0.287   0.292   0.294   0.288   0.282   0.285   0.279   0.275   0.275   0.276   0.285   0.277   0.281   0.280   0.281   0.288   0.290   0.291   0.289   0.288   0.281   0.278   0.281   0.276   0.277   0.282   0.274   0.277   0.282   0.287   0.285   0.285   0.276   0.281   0.286   0.285   0.279   0.285   0.277   0.274   0.280   0.288   0.285   0.286   0.284   0.283   0.295   0.282   0.286   0.292   0.283   0.274   0.287   0.283   0.286   0.282   0.276   0.279   0.283   0.289   0.286   0.280   0.285   0.290   0.296   0.298   0.300   0.298   0.285   0.288   0.287   0.287   0.285   0.284   0.294   0.292   0.294   0.291   0.302   0.300   0.310   0.305   0.294   0.289   0.289   0.282   0.278   0.280   0.290   0.290   0.286   0.299   0.305   0.303   0.291   0.299   0.287   0.280   0.286   0.288   0.292   0.291   0.279   0.289   0.289   0.292   0.284   0.276   0.286   0.286   0.293   0.287   0.282   0.283   0.293   0.295   0.285   0.293   0.283
    10.30    0.290   0.284   0.279   0.279   0.285   0.289   0.284   0.282   0.276   0.275   0.284   0.279   0.275   0.281   0.294   0.277   0.285   0.290   0.292   0.265   0.277   0.278   0.276   0.276   0.267   0.275   0.277   0.288   0.285   0.274   0.280   0.281   0.281   0.287   0.286   0.287   0.281   0.286   0.278   0.285   0.286   0.286   0.279   0.284   0.286   0.284   0.287   0.285   0.278   0.284   0.278   0.271   0.271   0.271   0.281   0.279   0.284   0.290   0.283   0.272   0.272   0.279   0.279   0.283   0.284   0.298   0.294   0.287   0.287   0.286   0.271   0.279   0.275   0.292   0.294   0.291   0.277   0.280   0.284   0.282   0.274   0.268   0.279   0.277   0.282   0.286   0.281   0.288   0.291   0.297   0.298   0.295   0.291   0.286   0.275   0.270   0.275   0.273   0.275   0.283   0.273   0.279   0.292   0.295   0.285   0.287   0.289   0.280   0.281   0.273   0.271   0.275   0.275   0.273   0.280   0.283   0.283   0.287   0.283   0.286   0.285   0.290   0.292   0.296   0.274   0.277   0.282   0.283   0.283   0.287   0.285   0.282   0.284   0.288   0.281   0.283   0.288   0.288   0.293   0.293   0.293   0.299   0.290   0.282   0.281   0.285   0.285   0.293   0.296   0.291   0.291   0.297   0.297   0.300   0.295   0.303   0.301   0.299   0.286   0.283   0.277   0.277   0.287   0.293   0.285   0.281   0.284   0.292   0.290   0.291   0.293   0.290   0.290   0.298   0.304   0.296   0.289   0.296   0.295   0.296   0.289   0.287   0.287   0.286   0.295   0.278   0.277   0.283   0.293   0.296   0.295   0.290   0.289
     1.00    0.284   0.291   0.286   0.283   0.278   0.285   0.281   0.281   0.284   0.276   0.282   0.293   0.286   0.287   0.291   0.285   0.283   0.281   0.279   0.281   0.284   0.281   0.273   0.277   0.275   0.278   0.280   0.287   0.278   0.281   0.277   0.283   0.282   0.284   0.283   0.288   0.288   0.285   0.284   0.292   0.284   0.279   0.280   0.281   0.287   0.289   0.287   0.285   0.290   0.285   0.275   0.271   0.267   0.273   0.271   0.279   0.288   0.284   0.283   0.273   0.279   0.287   0.292   0.285   0.292   0.286   0.295   0.299   0.292   0.285   0.284   0.279   0.290   0.290   0.282   0.289   0.280   0.284   0.282   0.280   0.284   0.291   0.274   0.277   0.278   0.291   0.286   0.277   0.284   0.278   0.297   0.290   0.281   0.289   0.277   0.283   0.288   0.271   0.278   0.281   0.273   0.278   0.284   0.288   0.285   0.287   0.291   0.291   0.275   0.283   0.279   0.278   0.278   0.281   0.278   0.279   0.284   0.287   0.278   0.288   0.285   0.282   0.281   0.283   0.272   0.274   0.285   0.287   0.285   0.287   0.286   0.290   0.291   0.285   0.293   0.284   0.289   0.287   0.294   0.293   0.290   0.298   0.293   0.282   0.286   0.286   0.287   0.295   0.295   0.293   0.289   0.303   0.297   0.295   0.299   0.286   0.289   0.292   0.292   0.286   0.281   0.285   0.286   0.281   0.292   0.283   0.281   0.282   0.288   0.297   0.295   0.297   0.297   0.293   0.297   0.299   0.294   0.296   0.294   0.282   0.291   0.289   0.286   0.286   0.287   0.280   0.271   0.285   0.287   0.287   0.294   0.290   0.293

   Mean standard deviation across all grid points:
      u component:    0.561 m/s
      v component:    0.470 m/s
      w component:    0.284 m/s


U-component (X) statistics from the interpolated hub point:

   Mean =   9.7063 m/s
   TI   =   5.8029 %


Processing complete.  2.13018E+05 CPU seconds used.
