
This summary file was generated by TurbSim (from OpenFAST-v3.5.3) on 20-Apr-2025 at 00:21:06.


Runtime Options:

1341164796  Random seed #1
    RANLUX  Type of random number generator
         F  Output binary HH turbulence parameters?
         F  Output formatted turbulence parameters?
         F  Output AeroDyn HH files?
         T  Output AeroDyn FF files?
         F  Output BLADED FF files?
         F  Output tower data?
         F  Output HAWC FF files?
         F  Output formatted FF files?
         T  Output coherent turbulence time step file?
 0 -  NONE  IEC turbulence models scaled to exact specified standard deviation


Turbine/Model Specifications:

        39  Vertical grid-point matrix dimension
       193  Horizontal grid-point matrix dimension
     0.250  Time step [seconds]
   900.000  Analysis time [seconds]
   900.000  Usable output time [seconds]
   177.700  Hub height [m]
   353.400  Grid height [m]
  1785.600  Grid width [m]
     0.000  Vertical flow angle [degrees]
     0.000  Horizontal flow angle [degrees]


Meteorological Boundary Conditions:

    IECKAI  IEC Kaimal spectral model
         1  IEC standard: IEC 61400-1 Ed. 3: 2005
     6.000  Percent turbulence intensity, IEC 61400-1 Ed. 3: 2005
       NTM  IEC Normal Turbulence Model
       N/A  IEC Extreme Turbulence Model (ETM) "c" parameter [m/s]
       USR  Wind profile type
    90.000  Reference height [m]
       N/A  Reference wind speed [m/s]
       N/A  Jet height [m]
       N/A  Power law exponent
     0.030  Surface roughness length [m]


Non-IEC Meteorological Boundary Conditions:

       N/A  Site latitude [degrees]
       N/A  Gradient Richardson number
       N/A  Friction or shear velocity [m/s]
       N/A  Mixing layer depth [m]
       N/A  Mean hub u'w' Reynolds stress
       N/A  Mean hub u'v' Reynolds stress
       N/A  Mean hub v'w' Reynolds stress


Spatial Coherence Models:

       IEC  u-component coherence model
       IEC  v-component coherence model
       IEC  w-component coherence model
(   12.000, 0.353E-03)  u-component coherence parameters
(   12.000, 0.353E-03)  v-component coherence parameters
(   12.000, 0.353E-03)  w-component coherence parameters
       N/A  Coherence exponent


User-Defined Profiles:

  Height   Wind Speed   Horizontal Angle
   (m)        (m/s)          (deg)      
  ------   ----------   ----------------
  353.40      10.00         318.19
  334.80      10.00         321.14
  316.20      10.00         324.10
  297.60      10.00         327.05
  279.00      10.00         330.00
  260.40      10.00         332.95
  241.80      10.00         335.90
  223.20      10.00         338.86
  204.60      10.00         341.81
  186.00      10.00         344.76
  167.40      10.00         347.71
  148.80      10.00         350.67
  130.20      10.00         353.62
  111.60      10.00         356.57
   93.00      10.00         359.52
   74.40      10.00           2.48
   55.80      10.00           5.43
   37.20      10.00           8.38
   18.60      10.00          11.33
    0.00      10.00          14.29


You have requested that the following file(s) be generated:

   /kfs3/scratch/agupta/Projects/RL_Incubator/FinalRuns_Veer/Seed4/./FFSim_Seed4/Cond00_v10.0_PL0.12_TI6.0/Seed_8/Low.bts (AeroDyn/TurbSim full-field wind file)


Turbulence Simulation Scaling Parameter Summary:

   Turbulence model used                            =  IEC Kaimal
   Turbulence characteristic                        =  User-specified
   IEC standard                                     =  IEC 61400-1 Ed. 3: 2005
   Mean wind speed at hub height                    =   10.000 m/s
   Characteristic value of standard deviation       =    0.600 m/s
   Turbulence scale                                 =   42.000 m
   u-component integral scale                       =  340.200 m
   Coherency scale                                  =  340.200 m
   Characteristic value of hub turbulence intensity =    6.000%
   Gradient Richardson number                       =    0.000

   Wind profile type                                =  Linear interpolation of user-defined profile
   Equivalent power law exponent (upper rotor disk) =    0.000
   Mean shear across rotor disk                     =    0.000 (m/s)/m
   Assumed rotor diameter                           =  353.400 m
   Surface roughness length                         =    0.030 m

   Nyquist frequency of turbulent wind field        =    2.000 Hz

   Number of time steps in the FFT                  =     3600
   Number of time steps output                      =     3600
   Number of points simulated                       =     7527


Mean Flow Angles:

   Vertical   =   0.0 degrees
   Horizontal =   0.0 degrees

Mean Wind Speed Profile:

   Height    Wind Speed   Horizontal Angle  Vertical Angle  U-comp (X)   V-comp (Y)   W-comp (Z)
     (m)        (m/s)         (degrees)       (degrees)       (m/s)        (m/s)        (m/s)   
   ------    ----------   ----------------  --------------  ----------   ----------   ----------
    354.4       10.00          318.19            0.00          7.45        -6.67         0.00
    345.1       10.00          319.51            0.00          7.60        -6.49         0.00
    335.8       10.00          320.98            0.00          7.77        -6.30         0.00
    326.5       10.00          322.46            0.00          7.93        -6.09         0.00
    317.2       10.00          323.94            0.00          8.08        -5.89         0.00
    307.9       10.00          325.41            0.00          8.23        -5.68         0.00
    298.6       10.00          326.89            0.00          8.38        -5.46         0.00
    289.3       10.00          328.37            0.00          8.51        -5.25         0.00
    280.0       10.00          329.84            0.00          8.65        -5.02         0.00
    270.7       10.00          331.32            0.00          8.77        -4.80         0.00
    261.4       10.00          332.79            0.00          8.89        -4.57         0.00
    252.1       10.00          334.27            0.00          9.01        -4.34         0.00
    242.8       10.00          335.75            0.00          9.12        -4.11         0.00
    233.5       10.00          337.22            0.00          9.22        -3.87         0.00
    224.2       10.00          338.70            0.00          9.32        -3.63         0.00
    214.9       10.00          340.17            0.00          9.41        -3.39         0.00
    205.6       10.00          341.65            0.00          9.49        -3.15         0.00
    196.3       10.00          343.13            0.00          9.57        -2.90         0.00
    187.0       10.00          344.60            0.00          9.64        -2.66         0.00
    177.7       10.00          346.08            0.00          9.71        -2.41         0.00
    168.4       10.00          347.56            0.00          9.77        -2.15         0.00
    159.1       10.00          349.03            0.00          9.82        -1.90         0.00
    149.8       10.00          350.51            0.00          9.86        -1.65         0.00
    140.5       10.00          351.98            0.00          9.90        -1.39         0.00
    131.2       10.00          353.46            0.00          9.93        -1.14         0.00
    121.9       10.00          354.94            0.00          9.96        -0.88         0.00
    112.6       10.00          356.41            0.00          9.98        -0.63         0.00
    103.3       10.00          357.89            0.00          9.99        -0.37         0.00
     94.0       10.00          359.37            0.00         10.00        -0.11         0.00
     84.7       10.00          360.84            0.00         10.00         0.15         0.00
     75.4       10.00          362.32            0.00          9.99         0.40         0.00
     66.1       10.00            3.79            0.00          9.98         0.66         0.00
     56.8       10.00            5.27            0.00          9.96         0.92         0.00
     47.5       10.00            6.75            0.00          9.93         1.17         0.00
     38.2       10.00            8.22            0.00          9.90         1.43         0.00
     28.9       10.00            9.70            0.00          9.86         1.68         0.00
     19.6       10.00           11.17            0.00          9.81         1.94         0.00
     10.3       10.00           12.65            0.00          9.76         2.19         0.00
      1.0       10.00           14.13            0.00          9.70         2.44         0.00


Harvested Random Seeds after Generation of the Random Numbers:

    377667225 K 1
            0 K 2


Hub-Height Simulated Turbulence Statistical Summary:

   Type of Wind        Min (m/s)   Mean (m/s)    Max (m/s)  Sigma (m/s)       TI (%)
   ----------------    ---------   ----------    ---------  -----------       ------
   Longitudinal (u)         8.47        10.00        12.00        0.543        5.433
   Lateral (v)             -1.62         0.00         1.86        0.508        5.081
   Vertical (w)            -1.03        -0.00         1.04        0.286        2.858
   U component              8.10         9.71        11.77        0.514        5.300
   V component             -4.09        -2.41        -0.81        0.537        5.535
   W component             -1.03        -0.00         1.04        0.286        2.944
   Horizontal (U&V)         8.49        10.01        12.01        0.545        5.448
   Total                    8.49        10.02        12.01        0.545        5.443

                       Min Reynolds     Mean Reynolds    Max Reynolds    Correlation
   Product             Stress (m/s)^2   Stress (m/s)^2   Stress (m/s)^2  Coefficient
   ----------------    --------------   --------------   --------------  -----------
   u'w'                     -0.804             0.001             0.990         0.007
   u'v'                     -1.602            -0.061             1.794        -0.220
   v'w'                     -0.824            -0.001             1.024        -0.005


   Friction Velocity (Ustar)  =      0.033 m/s
   Maximum Instantaneous TKE  =      2.222 (m/s)^2
   Maximum Instantaneous CTKE =      0.925 (m/s)^2


Grid Point Variance Summary:

   Y-coord -892.80 -883.50 -874.20 -864.90 -855.60 -846.30 -837.00 -827.70 -818.40 -809.10 -799.80 -790.50 -781.20 -771.90 -762.60 -753.30 -744.00 -734.70 -725.40 -716.10 -706.80 -697.50 -688.20 -678.90 -669.60 -660.30 -651.00 -641.70 -632.40 -623.10 -613.80 -604.50 -595.20 -585.90 -576.60 -567.30 -558.00 -548.70 -539.40 -530.10 -520.80 -511.50 -502.20 -492.90 -483.60 -474.30 -465.00 -455.70 -446.40 -437.10 -427.80 -418.50 -409.20 -399.90 -390.60 -381.30 -372.00 -362.70 -353.40 -344.10 -334.80 -325.50 -316.20 -306.90 -297.60 -288.30 -279.00 -269.70 -260.40 -251.10 -241.80 -232.50 -223.20 -213.90 -204.60 -195.30 -186.00 -176.70 -167.40 -158.10 -148.80 -139.50 -130.20 -120.90 -111.60 -102.30  -93.00  -83.70  -74.40  -65.10  -55.80  -46.50  -37.20  -27.90  -18.60   -9.30    0.00    9.30   18.60   27.90   37.20   46.50   55.80   65.10   74.40   83.70   93.00  102.30  111.60  120.90  130.20  139.50  148.80  158.10  167.40  176.70  186.00  195.30  204.60  213.90  223.20  232.50  241.80  251.10  260.40  269.70  279.00  288.30  297.60  306.90  316.20  325.50  334.80  344.10  353.40  362.70  372.00  381.30  390.60  399.90  409.20  418.50  427.80  437.10  446.40  455.70  465.00  474.30  483.60  492.90  502.20  511.50  520.80  530.10  539.40  548.70  558.00  567.30  576.60  585.90  595.20  604.50  613.80  623.10  632.40  641.70  651.00  660.30  669.60  678.90  688.20  697.50  706.80  716.10  725.40  734.70  744.00  753.30  762.60  771.90  781.20  790.50  799.80  809.10  818.40  827.70  837.00  846.30  855.60  864.90  874.20  883.50  892.80

   Height   Standard deviation at grid points for the u component:
   354.40    0.485   0.482   0.489   0.459   0.470   0.497   0.509   0.513   0.488   0.487   0.480   0.498   0.513   0.541   0.560   0.509   0.465   0.530   0.538   0.527   0.592   0.615   0.646   0.633   0.613   0.602   0.597   0.588   0.555   0.548   0.559   0.615   0.645   0.653   0.674   0.652   0.616   0.585   0.559   0.540   0.567   0.582   0.605   0.592   0.541   0.553   0.564   0.563   0.560   0.544   0.590   0.607   0.587   0.593   0.585   0.530   0.515   0.490   0.498   0.508   0.516   0.509   0.512   0.487   0.507   0.510   0.512   0.514   0.533   0.538   0.517   0.486   0.495   0.542   0.523   0.503   0.474   0.455   0.487   0.487   0.475   0.476   0.456   0.448   0.449   0.479   0.484   0.496   0.513   0.471   0.495   0.510   0.534   0.581   0.606   0.634   0.644   0.638   0.647   0.656   0.698   0.636   0.629   0.600   0.583   0.554   0.550   0.579   0.546   0.501   0.488   0.505   0.475   0.442   0.479   0.447   0.463   0.525   0.528   0.542   0.530   0.541   0.532   0.509   0.504   0.548   0.581   0.549   0.568   0.509   0.539   0.536   0.551   0.503   0.539   0.526   0.510   0.527   0.515   0.564   0.573   0.568   0.558   0.494   0.483   0.546   0.543   0.564   0.533   0.550   0.534   0.536   0.553   0.505   0.519   0.554   0.543   0.538   0.560   0.558   0.603   0.576   0.536   0.530   0.539   0.562   0.539   0.516   0.503   0.514   0.528   0.576   0.566   0.598   0.611   0.620   0.607   0.637   0.627   0.629   0.582   0.565   0.597   0.591   0.637   0.658   0.632   0.640   0.649   0.633   0.630   0.612   0.580
   345.10    0.515   0.493   0.481   0.445   0.481   0.469   0.509   0.503   0.483   0.467   0.476   0.539   0.534   0.563   0.519   0.486   0.515   0.567   0.542   0.590   0.628   0.656   0.648   0.592   0.580   0.587   0.617   0.583   0.540   0.539   0.563   0.608   0.674   0.623   0.631   0.623   0.597   0.562   0.600   0.565   0.582   0.557   0.578   0.561   0.555   0.567   0.582   0.578   0.538   0.581   0.610   0.656   0.663   0.610   0.554   0.545   0.487   0.488   0.487   0.476   0.496   0.465   0.488   0.483   0.484   0.506   0.523   0.557   0.568   0.592   0.541   0.526   0.531   0.536   0.515   0.480   0.498   0.496   0.524   0.518   0.499   0.509   0.472   0.451   0.473   0.444   0.473   0.497   0.473   0.464   0.490   0.534   0.534   0.537   0.614   0.626   0.621   0.610   0.630   0.635   0.657   0.652   0.617   0.595   0.591   0.597   0.572   0.526   0.506   0.509   0.510   0.491   0.447   0.446   0.461   0.461   0.443   0.472   0.499   0.490   0.514   0.517   0.547   0.554   0.570   0.569   0.604   0.598   0.589   0.562   0.541   0.523   0.522   0.592   0.556   0.580   0.597   0.562   0.540   0.528   0.567   0.565   0.573   0.521   0.536   0.547   0.535   0.524   0.493   0.498   0.510   0.452   0.501   0.500   0.491   0.523   0.545   0.524   0.515   0.530   0.566   0.552   0.537   0.504   0.538   0.554   0.545   0.513   0.528   0.522   0.540   0.545   0.561   0.570   0.596   0.595   0.613   0.645   0.618   0.642   0.590   0.564   0.553   0.586   0.621   0.628   0.606   0.622   0.625   0.582   0.603   0.551   0.558
   335.80    0.509   0.492   0.455   0.478   0.453   0.489   0.469   0.492   0.469   0.470   0.502   0.522   0.508   0.525   0.549   0.541   0.551   0.549   0.556   0.569   0.590   0.648   0.629   0.588   0.617   0.573   0.581   0.531   0.521   0.528   0.536   0.567   0.638   0.613   0.607   0.596   0.591   0.562   0.611   0.560   0.552   0.537   0.574   0.593   0.546   0.564   0.571   0.563   0.565   0.579   0.589   0.656   0.644   0.599   0.549   0.494   0.514   0.493   0.521   0.505   0.481   0.474   0.498   0.533   0.527   0.528   0.544   0.563   0.556   0.574   0.597   0.510   0.524   0.537   0.541   0.524   0.515   0.513   0.556   0.531   0.504   0.478   0.463   0.487   0.483   0.464   0.463   0.463   0.456   0.487   0.520   0.504   0.560   0.571   0.601   0.598   0.607   0.607   0.652   0.640   0.650   0.641   0.584   0.582   0.598   0.567   0.551   0.533   0.460   0.458   0.472   0.469   0.467   0.463   0.463   0.482   0.473   0.472   0.469   0.523   0.523   0.488   0.525   0.524   0.570   0.555   0.554   0.564   0.558   0.551   0.553   0.546   0.541   0.620   0.632   0.609   0.570   0.556   0.561   0.553   0.558   0.561   0.575   0.569   0.558   0.522   0.507   0.485   0.506   0.481   0.466   0.441   0.456   0.476   0.490   0.512   0.534   0.511   0.484   0.498   0.523   0.528   0.545   0.510   0.551   0.561   0.557   0.545   0.513   0.504   0.548   0.541   0.558   0.559   0.539   0.586   0.604   0.627   0.585   0.583   0.574   0.553   0.502   0.526   0.576   0.599   0.604   0.591   0.592   0.565   0.583   0.543   0.503
   326.50    0.520   0.491   0.450   0.421   0.454   0.444   0.434   0.470   0.472   0.505   0.536   0.551   0.549   0.541   0.552   0.537   0.536   0.586   0.583   0.584   0.581   0.617   0.641   0.602   0.604   0.600   0.582   0.567   0.577   0.523   0.503   0.556   0.584   0.600   0.597   0.557   0.579   0.545   0.568   0.560   0.527   0.556   0.559   0.597   0.572   0.550   0.532   0.551   0.560   0.568   0.577   0.623   0.603   0.537   0.500   0.487   0.498   0.516   0.522   0.543   0.553   0.532   0.518   0.532   0.549   0.547   0.544   0.578   0.583   0.567   0.580   0.573   0.515   0.534   0.540   0.550   0.525   0.526   0.541   0.545   0.454   0.435   0.430   0.476   0.453   0.473   0.435   0.469   0.482   0.495   0.526   0.543   0.542   0.567   0.570   0.574   0.583   0.597   0.630   0.665   0.640   0.639   0.589   0.583   0.609   0.613   0.558   0.567   0.506   0.472   0.456   0.476   0.473   0.463   0.456   0.449   0.458   0.466   0.485   0.549   0.554   0.543   0.552   0.520   0.545   0.567   0.574   0.579   0.583   0.572   0.574   0.555   0.583   0.625   0.645   0.593   0.592   0.585   0.556   0.550   0.602   0.604   0.558   0.548   0.504   0.477   0.484   0.499   0.470   0.482   0.492   0.466   0.484   0.506   0.487   0.506   0.539   0.513   0.501   0.533   0.498   0.486   0.558   0.524   0.544   0.572   0.579   0.533   0.546   0.515   0.518   0.532   0.570   0.558   0.606   0.629   0.616   0.598   0.584   0.552   0.572   0.575   0.581   0.575   0.578   0.574   0.599   0.589   0.595   0.534   0.496   0.483   0.489
   317.20    0.511   0.526   0.492   0.457   0.442   0.494   0.493   0.504   0.527   0.604   0.572   0.598   0.562   0.574   0.566   0.564   0.537   0.579   0.566   0.602   0.579   0.612   0.622   0.597   0.590   0.565   0.561   0.554   0.562   0.566   0.546   0.533   0.572   0.560   0.546   0.568   0.523   0.559   0.557   0.558   0.525   0.517   0.565   0.598   0.580   0.560   0.529   0.546   0.519   0.524   0.590   0.613   0.579   0.494   0.495   0.492   0.508   0.520   0.547   0.596   0.566   0.527   0.526   0.503   0.543   0.531   0.532   0.539   0.578   0.577   0.596   0.560   0.566   0.533   0.519   0.522   0.541   0.577   0.536   0.521   0.481   0.456   0.457   0.458   0.430   0.433   0.450   0.498   0.480   0.487   0.504   0.549   0.537   0.582   0.551   0.548   0.555   0.606   0.645   0.589   0.596   0.646   0.597   0.604   0.639   0.593   0.587   0.551   0.579   0.535   0.496   0.476   0.485   0.478   0.452   0.455   0.499   0.489   0.486   0.520   0.520   0.550   0.546   0.533   0.547   0.588   0.612   0.600   0.622   0.596   0.634   0.633   0.619   0.624   0.635   0.640   0.616   0.592   0.559   0.571   0.590   0.576   0.549   0.495   0.504   0.490   0.519   0.508   0.466   0.521   0.526   0.551   0.511   0.479   0.483   0.492   0.521   0.533   0.559   0.551   0.550   0.588   0.598   0.576   0.542   0.554   0.532   0.536   0.537   0.523   0.530   0.559   0.603   0.587   0.595   0.604   0.565   0.621   0.565   0.543   0.571   0.568   0.559   0.596   0.599   0.583   0.568   0.592   0.567   0.538   0.491   0.470   0.497
   307.90    0.525   0.526   0.505   0.500   0.464   0.481   0.501   0.509   0.550   0.606   0.568   0.579   0.561   0.550   0.586   0.579   0.579   0.574   0.598   0.600   0.605   0.591   0.608   0.583   0.541   0.548   0.548   0.543   0.575   0.607   0.561   0.522   0.568   0.575   0.561   0.531   0.554   0.597   0.567   0.542   0.530   0.538   0.516   0.535   0.578   0.523   0.534   0.509   0.521   0.521   0.520   0.502   0.576   0.500   0.497   0.476   0.500   0.539   0.560   0.544   0.569   0.534   0.515   0.509   0.543   0.551   0.554   0.514   0.546   0.572   0.578   0.598   0.584   0.547   0.523   0.507   0.537   0.502   0.517   0.480   0.467   0.447   0.449   0.436   0.433   0.439   0.499   0.508   0.501   0.504   0.508   0.526   0.538   0.532   0.527   0.554   0.551   0.597   0.607   0.613   0.648   0.600   0.600   0.591   0.609   0.573   0.560   0.556   0.564   0.569   0.509   0.497   0.485   0.459   0.462   0.460   0.511   0.491   0.484   0.519   0.538   0.563   0.605   0.594   0.597   0.570   0.587   0.627   0.641   0.632   0.670   0.674   0.678   0.654   0.595   0.619   0.618   0.603   0.524   0.591   0.625   0.569   0.578   0.537   0.528   0.547   0.518   0.519   0.527   0.555   0.546   0.539   0.537   0.501   0.490   0.533   0.554   0.547   0.549   0.551   0.545   0.595   0.588   0.596   0.553   0.512   0.525   0.537   0.548   0.543   0.562   0.564   0.595   0.607   0.600   0.597   0.579   0.622   0.584   0.590   0.551   0.532   0.593   0.590   0.562   0.545   0.551   0.536   0.520   0.519   0.462   0.495   0.513
   298.60    0.511   0.518   0.511   0.497   0.472   0.480   0.497   0.502   0.544   0.551   0.595   0.597   0.563   0.560   0.555   0.542   0.536   0.546   0.567   0.571   0.592   0.557   0.547   0.564   0.508   0.562   0.558   0.560   0.560   0.588   0.544   0.536   0.532   0.573   0.557   0.512   0.572   0.550   0.572   0.558   0.540   0.541   0.534   0.525   0.514   0.517   0.506   0.525   0.494   0.543   0.535   0.569   0.559   0.499   0.515   0.490   0.508   0.520   0.519   0.542   0.548   0.511   0.521   0.525   0.572   0.588   0.550   0.564   0.542   0.542   0.569   0.584   0.572   0.575   0.528   0.517   0.480   0.487   0.499   0.469   0.476   0.427   0.451   0.426   0.414   0.467   0.513   0.512   0.518   0.521   0.535   0.519   0.507   0.499   0.517   0.572   0.576   0.600   0.595   0.630   0.609   0.628   0.601   0.576   0.595   0.616   0.630   0.583   0.555   0.521   0.497   0.528   0.521   0.527   0.499   0.483   0.526   0.503   0.513   0.534   0.551   0.550   0.598   0.590   0.571   0.532   0.598   0.606   0.622   0.620   0.648   0.675   0.648   0.648   0.613   0.590   0.585   0.585   0.568   0.624   0.647   0.608   0.601   0.587   0.556   0.542   0.529   0.561   0.551   0.533   0.582   0.603   0.548   0.496   0.514   0.543   0.539   0.566   0.563   0.578   0.581   0.585   0.597   0.552   0.557   0.503   0.473   0.507   0.512   0.560   0.550   0.563   0.561   0.550   0.578   0.600   0.596   0.581   0.602   0.589   0.568   0.529   0.588   0.577   0.594   0.547   0.520   0.497   0.479   0.480   0.478   0.515   0.521
   289.30    0.572   0.558   0.540   0.527   0.512   0.495   0.498   0.509   0.521   0.542   0.557   0.568   0.535   0.498   0.489   0.525   0.530   0.549   0.509   0.567   0.558   0.523   0.540   0.556   0.543   0.560   0.570   0.546   0.542   0.540   0.545   0.537   0.575   0.578   0.581   0.538   0.582   0.577   0.582   0.593   0.609   0.563   0.525   0.498   0.494   0.506   0.514   0.519   0.510   0.523   0.540   0.539   0.551   0.529   0.510   0.506   0.509   0.512   0.511   0.515   0.518   0.525   0.569   0.565   0.546   0.568   0.578   0.560   0.542   0.541   0.518   0.566   0.528   0.510   0.533   0.509   0.497   0.490   0.511   0.471   0.456   0.450   0.461   0.439   0.431   0.483   0.541   0.525   0.538   0.538   0.517   0.512   0.506   0.474   0.484   0.551   0.601   0.595   0.600   0.594   0.597   0.653   0.630   0.638   0.607   0.663   0.647   0.609   0.561   0.564   0.530   0.497   0.525   0.523   0.499   0.487   0.500   0.532   0.545   0.503   0.543   0.553   0.572   0.611   0.572   0.566   0.611   0.596   0.630   0.652   0.632   0.684   0.618   0.629   0.623   0.626   0.593   0.606   0.605   0.616   0.588   0.573   0.592   0.536   0.525   0.528   0.569   0.502   0.563   0.531   0.558   0.584   0.565   0.561   0.515   0.550   0.523   0.580   0.564   0.583   0.563   0.575   0.576   0.529   0.540   0.525   0.487   0.461   0.504   0.522   0.521   0.564   0.545   0.547   0.568   0.571   0.543   0.568   0.588   0.555   0.579   0.537   0.566   0.576   0.575   0.569   0.565   0.537   0.507   0.475   0.490   0.478   0.515
   280.00    0.562   0.563   0.531   0.551   0.520   0.538   0.548   0.526   0.500   0.536   0.551   0.569   0.547   0.542   0.549   0.518   0.537   0.573   0.561   0.572   0.534   0.508   0.506   0.498   0.550   0.533   0.539   0.567   0.564   0.542   0.512   0.575   0.579   0.584   0.566   0.573   0.570   0.600   0.601   0.598   0.569   0.531   0.506   0.471   0.483   0.500   0.522   0.505   0.518   0.523   0.564   0.554   0.507   0.494   0.494   0.490   0.482   0.466   0.501   0.507   0.518   0.510   0.540   0.587   0.583   0.582   0.598   0.577   0.521   0.513   0.507   0.553   0.536   0.520   0.489   0.500   0.500   0.481   0.489   0.471   0.474   0.456   0.418   0.448   0.462   0.470   0.507   0.530   0.497   0.515   0.501   0.523   0.530   0.513   0.545   0.551   0.576   0.576   0.607   0.602   0.603   0.637   0.621   0.572   0.590   0.652   0.678   0.632   0.570   0.546   0.540   0.549   0.531   0.549   0.545   0.569   0.545   0.597   0.569   0.568   0.550   0.532   0.566   0.538   0.567   0.624   0.662   0.666   0.623   0.637   0.669   0.685   0.650   0.608   0.636   0.642   0.599   0.588   0.599   0.604   0.523   0.548   0.558   0.521   0.513   0.537   0.540   0.519   0.522   0.528   0.564   0.624   0.637   0.597   0.566   0.544   0.537   0.554   0.600   0.607   0.573   0.566   0.578   0.524   0.513   0.522   0.498   0.499   0.481   0.526   0.535   0.534   0.523   0.517   0.513   0.504   0.536   0.540   0.537   0.546   0.547   0.548   0.568   0.541   0.562   0.553   0.581   0.572   0.555   0.548   0.483   0.529   0.507
   270.70    0.534   0.574   0.591   0.608   0.571   0.591   0.592   0.585   0.552   0.551   0.555   0.549   0.585   0.584   0.554   0.518   0.572   0.595   0.540   0.543   0.524   0.479   0.470   0.491   0.541   0.533   0.502   0.543   0.574   0.513   0.549   0.573   0.602   0.612   0.586   0.563   0.575   0.600   0.625   0.551   0.546   0.512   0.500   0.490   0.467   0.490   0.525   0.536   0.526   0.530   0.559   0.522   0.516   0.508   0.516   0.500   0.508   0.511   0.503   0.460   0.480   0.485   0.515   0.546   0.567   0.548   0.573   0.550   0.539   0.530   0.522   0.564   0.543   0.529   0.491   0.507   0.500   0.524   0.538   0.516   0.484   0.485   0.488   0.469   0.436   0.479   0.502   0.498   0.492   0.523   0.540   0.490   0.529   0.519   0.495   0.549   0.554   0.594   0.604   0.651   0.630   0.598   0.597   0.583   0.606   0.613   0.663   0.632   0.573   0.572   0.589   0.546   0.552   0.562   0.526   0.581   0.624   0.605   0.604   0.546   0.535   0.548   0.524   0.511   0.534   0.596   0.640   0.670   0.651   0.630   0.641   0.675   0.645   0.593   0.602   0.610   0.609   0.603   0.585   0.563   0.540   0.525   0.548   0.536   0.515   0.503   0.515   0.527   0.497   0.514   0.582   0.605   0.617   0.558   0.575   0.527   0.554   0.564   0.594   0.584   0.531   0.527   0.512   0.484   0.503   0.517   0.488   0.508   0.534   0.532   0.528   0.497   0.537   0.505   0.496   0.510   0.505   0.509   0.490   0.522   0.546   0.499   0.551   0.533   0.595   0.574   0.587   0.545   0.550   0.492   0.515   0.517   0.501
   261.40    0.521   0.563   0.604   0.554   0.566   0.585   0.571   0.565   0.565   0.551   0.571   0.573   0.610   0.572   0.580   0.563   0.582   0.592   0.541   0.539   0.496   0.504   0.504   0.499   0.529   0.513   0.504   0.539   0.533   0.543   0.521   0.546   0.565   0.547   0.563   0.542   0.551   0.561   0.590   0.507   0.500   0.517   0.495   0.530   0.478   0.490   0.521   0.534   0.554   0.501   0.494   0.505   0.513   0.510   0.515   0.486   0.489   0.490   0.484   0.486   0.501   0.505   0.496   0.515   0.557   0.560   0.523   0.540   0.532   0.558   0.552   0.542   0.554   0.548   0.510   0.489   0.493   0.530   0.544   0.520   0.520   0.502   0.513   0.497   0.502   0.522   0.510   0.486   0.524   0.541   0.514   0.529   0.503   0.479   0.488   0.508   0.548   0.589   0.586   0.580   0.604   0.541   0.565   0.575   0.586   0.591   0.598   0.576   0.582   0.553   0.579   0.539   0.563   0.611   0.569   0.553   0.615   0.633   0.622   0.581   0.580   0.519   0.545   0.515   0.547   0.575   0.561   0.645   0.631   0.628   0.651   0.651   0.625   0.587   0.573   0.578   0.591   0.595   0.578   0.567   0.529   0.537   0.551   0.535   0.517   0.499   0.528   0.505   0.543   0.512   0.538   0.564   0.570   0.542   0.513   0.565   0.552   0.566   0.543   0.558   0.508   0.480   0.469   0.484   0.509   0.519   0.539   0.533   0.565   0.527   0.514   0.483   0.500   0.471   0.484   0.504   0.484   0.520   0.476   0.490   0.519   0.534   0.541   0.518   0.559   0.557   0.546   0.519   0.556   0.498   0.510   0.463   0.470
   252.10    0.543   0.593   0.556   0.527   0.581   0.600   0.586   0.556   0.544   0.612   0.617   0.596   0.626   0.625   0.573   0.571   0.549   0.556   0.540   0.532   0.547   0.546   0.499   0.529   0.506   0.512   0.528   0.549   0.563   0.516   0.525   0.567   0.587   0.546   0.528   0.543   0.533   0.538   0.559   0.519   0.511   0.520   0.523   0.521   0.482   0.518   0.513   0.555   0.564   0.491   0.446   0.467   0.498   0.523   0.516   0.489   0.497   0.520   0.503   0.503   0.531   0.537   0.506   0.519   0.522   0.546   0.545   0.545   0.536   0.556   0.566   0.538   0.505   0.518   0.527   0.508   0.512   0.519   0.524   0.528   0.504   0.491   0.472   0.467   0.524   0.552   0.548   0.557   0.559   0.537   0.519   0.535   0.529   0.523   0.519   0.489   0.534   0.582   0.584   0.565   0.566   0.552   0.524   0.552   0.582   0.594   0.607   0.597   0.588   0.554   0.608   0.584   0.573   0.603   0.603   0.590   0.632   0.688   0.677   0.598   0.600   0.567   0.591   0.545   0.562   0.602   0.595   0.625   0.610   0.629   0.618   0.637   0.658   0.580   0.573   0.557   0.569   0.564   0.581   0.540   0.566   0.508   0.550   0.575   0.526   0.498   0.510   0.506   0.484   0.493   0.524   0.519   0.534   0.534   0.548   0.540   0.565   0.529   0.547   0.515   0.466   0.466   0.473   0.498   0.510   0.513   0.553   0.565   0.526   0.533   0.482   0.523   0.506   0.441   0.501   0.513   0.515   0.561   0.517   0.529   0.523   0.508   0.529   0.533   0.542   0.532   0.529   0.517   0.533   0.532   0.526   0.486   0.472
   242.80    0.579   0.594   0.590   0.583   0.577   0.602   0.564   0.573   0.567   0.599   0.607   0.600   0.593   0.589   0.565   0.549   0.552   0.521   0.526   0.510   0.524   0.516   0.529   0.559   0.518   0.488   0.526   0.531   0.556   0.533   0.559   0.550   0.574   0.513   0.553   0.540   0.526   0.579   0.542   0.547   0.509   0.512   0.515   0.507   0.488   0.480   0.497   0.557   0.540   0.515   0.471   0.462   0.491   0.529   0.529   0.495   0.493   0.510   0.522   0.511   0.554   0.566   0.522   0.555   0.558   0.572   0.594   0.567   0.583   0.548   0.600   0.531   0.537   0.519   0.551   0.543   0.543   0.509   0.534   0.522   0.505   0.457   0.498   0.524   0.528   0.563   0.558   0.585   0.580   0.544   0.532   0.548   0.517   0.533   0.511   0.552   0.543   0.554   0.553   0.561   0.594   0.567   0.572   0.529   0.564   0.586   0.573   0.576   0.610   0.617   0.601   0.596   0.606   0.608   0.577   0.580   0.621   0.678   0.649   0.638   0.613   0.604   0.615   0.637   0.613   0.605   0.568   0.609   0.579   0.628   0.613   0.593   0.612   0.565   0.566   0.557   0.566   0.576   0.558   0.556   0.550   0.539   0.541   0.553   0.551   0.535   0.510   0.502   0.525   0.507   0.528   0.484   0.511   0.510   0.519   0.510   0.517   0.531   0.521   0.513   0.494   0.484   0.492   0.519   0.481   0.499   0.538   0.541   0.500   0.526   0.529   0.554   0.537   0.501   0.529   0.553   0.580   0.558   0.575   0.541   0.530   0.542   0.543   0.523   0.506   0.527   0.505   0.503   0.536   0.523   0.552   0.491   0.493
   233.50    0.573   0.575   0.557   0.570   0.542   0.572   0.571   0.553   0.570   0.613   0.580   0.565   0.589   0.609   0.577   0.604   0.524   0.484   0.492   0.489   0.494   0.534   0.549   0.559   0.556   0.519   0.509   0.543   0.566   0.578   0.554   0.563   0.558   0.555   0.526   0.510   0.519   0.557   0.543   0.552   0.517   0.507   0.482   0.497   0.483   0.493   0.531   0.506   0.554   0.486   0.485   0.486   0.496   0.496   0.494   0.496   0.500   0.510   0.556   0.565   0.552   0.534   0.538   0.570   0.598   0.602   0.605   0.569   0.557   0.557   0.553   0.553   0.564   0.544   0.559   0.504   0.532   0.521   0.561   0.550   0.517   0.539   0.541   0.556   0.562   0.552   0.566   0.586   0.573   0.527   0.560   0.553   0.554   0.538   0.535   0.551   0.537   0.500   0.520   0.538   0.521   0.524   0.534   0.517   0.547   0.574   0.563   0.565   0.572   0.602   0.612   0.576   0.597   0.585   0.598   0.577   0.618   0.656   0.628   0.645   0.610   0.628   0.620   0.643   0.629   0.597   0.557   0.603   0.575   0.620   0.635   0.610   0.590   0.567   0.570   0.562   0.557   0.561   0.539   0.550   0.544   0.517   0.514   0.542   0.523   0.536   0.510   0.513   0.507   0.495   0.471   0.489   0.505   0.510   0.537   0.479   0.489   0.475   0.514   0.526   0.485   0.484   0.496   0.490   0.499   0.510   0.542   0.560   0.489   0.496   0.518   0.542   0.526   0.529   0.524   0.528   0.537   0.539   0.572   0.524   0.519   0.493   0.545   0.556   0.511   0.492   0.485   0.493   0.523   0.508   0.499   0.494   0.511
   224.20    0.593   0.569   0.584   0.531   0.564   0.540   0.542   0.588   0.634   0.606   0.637   0.589   0.593   0.601   0.599   0.583   0.526   0.508   0.478   0.517   0.517   0.515   0.533   0.527   0.557   0.524   0.499   0.499   0.524   0.549   0.584   0.588   0.596   0.576   0.540   0.512   0.524   0.556   0.551   0.475   0.536   0.522   0.536   0.496   0.494   0.508   0.535   0.575   0.578   0.531   0.499   0.515   0.505   0.495   0.516   0.520   0.517   0.516   0.525   0.575   0.560   0.562   0.608   0.644   0.581   0.596   0.591   0.575   0.555   0.559   0.574   0.544   0.598   0.560   0.561   0.545   0.542   0.529   0.535   0.541   0.513   0.534   0.567   0.599   0.612   0.587   0.563   0.546   0.526   0.553   0.586   0.584   0.583   0.557   0.525   0.537   0.516   0.495   0.511   0.509   0.516   0.524   0.525   0.546   0.576   0.597   0.586   0.534   0.566   0.590   0.600   0.594   0.562   0.595   0.614   0.617   0.649   0.677   0.635   0.631   0.620   0.628   0.618   0.598   0.580   0.575   0.531   0.566   0.582   0.589   0.605   0.654   0.644   0.608   0.607   0.583   0.559   0.587   0.586   0.522   0.529   0.539   0.496   0.517   0.501   0.510   0.521   0.511   0.501   0.498   0.512   0.535   0.522   0.515   0.538   0.488   0.500   0.494   0.521   0.522   0.462   0.462   0.502   0.506   0.502   0.499   0.539   0.519   0.518   0.514   0.533   0.555   0.539   0.543   0.560   0.543   0.564   0.588   0.575   0.522   0.506   0.524   0.534   0.518   0.515   0.480   0.435   0.470   0.502   0.475   0.508   0.505   0.496
   214.90    0.577   0.551   0.559   0.580   0.534   0.504   0.554   0.563   0.611   0.606   0.629   0.601   0.606   0.598   0.614   0.572   0.582   0.551   0.518   0.531   0.512   0.509   0.522   0.537   0.542   0.570   0.531   0.514   0.551   0.560   0.568   0.597   0.580   0.557   0.554   0.549   0.521   0.557   0.554   0.507   0.548   0.506   0.530   0.534   0.478   0.527   0.578   0.633   0.550   0.564   0.566   0.578   0.532   0.499   0.494   0.511   0.556   0.557   0.590   0.563   0.584   0.606   0.651   0.623   0.569   0.552   0.573   0.545   0.580   0.579   0.593   0.565   0.594   0.570   0.573   0.571   0.574   0.583   0.510   0.509   0.504   0.557   0.551   0.581   0.552   0.527   0.508   0.523   0.480   0.522   0.545   0.575   0.574   0.584   0.570   0.504   0.509   0.525   0.506   0.534   0.519   0.481   0.511   0.521   0.526   0.555   0.573   0.564   0.560   0.563   0.578   0.612   0.565   0.578   0.579   0.578   0.621   0.617   0.666   0.656   0.622   0.630   0.603   0.628   0.594   0.548   0.555   0.577   0.568   0.552   0.649   0.646   0.640   0.648   0.627   0.593   0.554   0.574   0.578   0.543   0.557   0.521   0.508   0.525   0.525   0.530   0.513   0.479   0.505   0.543   0.503   0.551   0.516   0.514   0.528   0.535   0.522   0.494   0.509   0.511   0.465   0.509   0.454   0.518   0.552   0.531   0.532   0.504   0.547   0.548   0.553   0.535   0.542   0.548   0.599   0.588   0.574   0.622   0.596   0.520   0.497   0.517   0.489   0.524   0.531   0.478   0.452   0.464   0.481   0.465   0.486   0.502   0.495
   205.60    0.600   0.550   0.599   0.576   0.560   0.545   0.560   0.565   0.592   0.619   0.600   0.572   0.611   0.618   0.585   0.587   0.555   0.579   0.543   0.521   0.512   0.534   0.529   0.518   0.531   0.556   0.524   0.520   0.539   0.549   0.542   0.562   0.540   0.556   0.585   0.577   0.563   0.563   0.563   0.554   0.537   0.557   0.582   0.564   0.560   0.539   0.581   0.617   0.564   0.583   0.590   0.548   0.515   0.502   0.512   0.532   0.556   0.614   0.615   0.539   0.544   0.582   0.619   0.603   0.598   0.524   0.526   0.556   0.555   0.559   0.557   0.574   0.575   0.574   0.602   0.602   0.627   0.572   0.564   0.561   0.523   0.565   0.536   0.528   0.537   0.502   0.520   0.497   0.479   0.511   0.517   0.534   0.567   0.557   0.528   0.575   0.508   0.546   0.537   0.521   0.521   0.494   0.508   0.545   0.551   0.559   0.573   0.579   0.600   0.550   0.568   0.587   0.561   0.522   0.564   0.601   0.616   0.627   0.659   0.612   0.579   0.583   0.578   0.587   0.564   0.555   0.563   0.579   0.601   0.609   0.639   0.618   0.597   0.626   0.621   0.574   0.557   0.561   0.551   0.583   0.541   0.534   0.511   0.561   0.540   0.548   0.538   0.542   0.526   0.558   0.543   0.538   0.494   0.513   0.529   0.564   0.518   0.515   0.476   0.489   0.480   0.467   0.486   0.530   0.568   0.549   0.528   0.527   0.490   0.545   0.519   0.533   0.532   0.535   0.597   0.634   0.621   0.631   0.579   0.564   0.521   0.524   0.540   0.563   0.558   0.495   0.493   0.486   0.485   0.473   0.481   0.490   0.505
   196.30    0.568   0.557   0.557   0.531   0.567   0.576   0.581   0.578   0.601   0.593   0.565   0.578   0.555   0.593   0.566   0.561   0.558   0.555   0.589   0.520   0.544   0.537   0.552   0.510   0.532   0.525   0.543   0.524   0.592   0.541   0.523   0.549   0.560   0.510   0.564   0.561   0.520   0.536   0.528   0.587   0.525   0.549   0.570   0.605   0.600   0.585   0.623   0.608   0.594   0.578   0.583   0.591   0.545   0.527   0.544   0.579   0.566   0.580   0.610   0.571   0.536   0.573   0.556   0.566   0.569   0.506   0.499   0.502   0.523   0.540   0.514   0.561   0.562   0.568   0.581   0.618   0.633   0.591   0.605   0.539   0.527   0.543   0.524   0.531   0.539   0.517   0.504   0.472   0.512   0.497   0.507   0.513   0.553   0.559   0.568   0.567   0.531   0.569   0.576   0.577   0.564   0.567   0.550   0.591   0.602   0.578   0.586   0.590   0.607   0.550   0.596   0.569   0.567   0.558   0.586   0.603   0.613   0.611   0.596   0.587   0.562   0.557   0.599   0.571   0.579   0.557   0.583   0.555   0.635   0.620   0.582   0.632   0.633   0.654   0.627   0.598   0.573   0.578   0.549   0.568   0.604   0.593   0.567   0.590   0.616   0.580   0.580   0.588   0.578   0.566   0.591   0.577   0.545   0.526   0.540   0.547   0.546   0.521   0.467   0.470   0.453   0.455   0.453   0.503   0.550   0.561   0.526   0.520   0.491   0.499   0.513   0.530   0.546   0.565   0.603   0.635   0.635   0.619   0.565   0.575   0.561   0.570   0.580   0.563   0.557   0.538   0.472   0.504   0.513   0.547   0.556   0.560   0.502
   187.00    0.537   0.518   0.543   0.535   0.557   0.552   0.563   0.555   0.567   0.578   0.567   0.533   0.555   0.549   0.537   0.548   0.562   0.541   0.530   0.518   0.520   0.560   0.543   0.527   0.544   0.545   0.574   0.548   0.577   0.557   0.535   0.527   0.528   0.515   0.505   0.530   0.513   0.514   0.540   0.538   0.524   0.542   0.569   0.619   0.626   0.620   0.618   0.641   0.615   0.578   0.602   0.601   0.573   0.541   0.582   0.586   0.574   0.570   0.584   0.550   0.551   0.578   0.561   0.561   0.538   0.531   0.526   0.512   0.520   0.509   0.557   0.572   0.543   0.570   0.611   0.587   0.628   0.620   0.575   0.560   0.547   0.550   0.525   0.495   0.555   0.528   0.496   0.528   0.521   0.508   0.491   0.514   0.530   0.546   0.588   0.575   0.552   0.574   0.576   0.557   0.583   0.555   0.548   0.550   0.580   0.583   0.585   0.598   0.592   0.562   0.523   0.561   0.534   0.532   0.566   0.566   0.566   0.572   0.584   0.542   0.584   0.622   0.614   0.558   0.583   0.565   0.604   0.607   0.633   0.617   0.642   0.646   0.676   0.625   0.600   0.590   0.561   0.576   0.539   0.560   0.586   0.584   0.566   0.598   0.595   0.615   0.614   0.614   0.597   0.607   0.598   0.591   0.561   0.584   0.563   0.567   0.510   0.519   0.504   0.447   0.465   0.492   0.487   0.500   0.513   0.543   0.528   0.519   0.487   0.492   0.476   0.522   0.499   0.584   0.628   0.602   0.592   0.614   0.581   0.589   0.602   0.562   0.574   0.594   0.605   0.602   0.557   0.553   0.538   0.570   0.547   0.562   0.503
   177.70    0.522   0.526   0.569   0.593   0.582   0.565   0.608   0.596   0.607   0.577   0.549   0.561   0.518   0.558   0.540   0.546   0.548   0.564   0.535   0.533   0.544   0.540   0.545   0.525   0.505   0.537   0.536   0.526   0.540   0.551   0.543   0.541   0.526   0.544   0.498   0.494   0.488   0.507   0.521   0.503   0.528   0.539   0.578   0.618   0.628   0.630   0.618   0.632   0.601   0.580   0.565   0.569   0.572   0.574   0.592   0.598   0.592   0.574   0.596   0.566   0.564   0.541   0.510   0.552   0.592   0.531   0.523   0.493   0.492   0.502   0.540   0.554   0.609   0.584   0.595   0.583   0.642   0.619   0.555   0.546   0.546   0.522   0.550   0.531   0.539   0.532   0.502   0.478   0.519   0.501   0.453   0.498   0.513   0.543   0.580   0.550   0.543   0.588   0.552   0.550   0.574   0.568   0.579   0.547   0.570   0.618   0.588   0.581   0.555   0.548   0.565   0.582   0.539   0.528   0.564   0.583   0.597   0.562   0.567   0.601   0.558   0.595   0.601   0.584   0.583   0.619   0.599   0.631   0.626   0.633   0.674   0.693   0.700   0.640   0.612   0.563   0.563   0.586   0.552   0.540   0.541   0.587   0.604   0.569   0.610   0.651   0.604   0.595   0.617   0.625   0.574   0.596   0.614   0.612   0.589   0.604   0.544   0.528   0.519   0.479   0.484   0.514   0.489   0.490   0.495   0.520   0.519   0.504   0.494   0.475   0.517   0.526   0.532   0.581   0.592   0.597   0.607   0.569   0.598   0.621   0.577   0.594   0.549   0.594   0.631   0.632   0.591   0.562   0.540   0.577   0.571   0.554   0.464
   168.40    0.562   0.573   0.576   0.589   0.590   0.571   0.589   0.577   0.558   0.545   0.557   0.541   0.539   0.581   0.550   0.545   0.531   0.539   0.532   0.527   0.522   0.528   0.506   0.499   0.506   0.525   0.549   0.569   0.547   0.556   0.577   0.560   0.545   0.530   0.512   0.487   0.507   0.544   0.571   0.527   0.537   0.590   0.596   0.672   0.638   0.626   0.574   0.588   0.592   0.562   0.587   0.571   0.611   0.587   0.657   0.607   0.563   0.586   0.624   0.597   0.538   0.596   0.547   0.575   0.563   0.546   0.531   0.519   0.488   0.488   0.535   0.561   0.598   0.585   0.575   0.605   0.607   0.613   0.522   0.543   0.543   0.565   0.551   0.538   0.536   0.540   0.483   0.505   0.523   0.473   0.488   0.511   0.537   0.564   0.551   0.512   0.541   0.570   0.596   0.580   0.605   0.599   0.586   0.594   0.574   0.581   0.589   0.568   0.574   0.555   0.568   0.574   0.596   0.550   0.579   0.601   0.588   0.544   0.570   0.562   0.578   0.569   0.570   0.579   0.576   0.609   0.611   0.601   0.573   0.601   0.624   0.640   0.659   0.643   0.602   0.556   0.549   0.577   0.547   0.560   0.568   0.578   0.555   0.614   0.641   0.601   0.600   0.609   0.603   0.614   0.584   0.561   0.573   0.572   0.555   0.552   0.574   0.530   0.556   0.521   0.516   0.525   0.513   0.503   0.485   0.459   0.500   0.505   0.533   0.489   0.511   0.506   0.558   0.582   0.580   0.583   0.590   0.584   0.602   0.596   0.636   0.597   0.594   0.627   0.616   0.613   0.599   0.594   0.564   0.583   0.522   0.508   0.479
   159.10    0.590   0.558   0.571   0.550   0.574   0.589   0.588   0.580   0.557   0.561   0.577   0.580   0.570   0.632   0.602   0.552   0.535   0.527   0.542   0.540   0.508   0.494   0.554   0.503   0.516   0.525   0.506   0.547   0.560   0.509   0.548   0.562   0.520   0.534   0.537   0.528   0.534   0.578   0.600   0.589   0.581   0.609   0.627   0.644   0.658   0.608   0.575   0.562   0.539   0.511   0.522   0.508   0.537   0.567   0.617   0.605   0.620   0.592   0.612   0.605   0.599   0.559   0.549   0.560   0.559   0.565   0.506   0.488   0.505   0.506   0.547   0.572   0.582   0.581   0.571   0.583   0.574   0.598   0.576   0.526   0.520   0.541   0.543   0.524   0.520   0.517   0.495   0.479   0.495   0.503   0.506   0.485   0.527   0.528   0.540   0.498   0.545   0.554   0.576   0.598   0.611   0.618   0.627   0.590   0.568   0.576   0.597   0.591   0.618   0.582   0.589   0.601   0.598   0.579   0.588   0.588   0.568   0.588   0.592   0.593   0.590   0.607   0.569   0.570   0.581   0.625   0.641   0.570   0.612   0.585   0.563   0.614   0.576   0.606   0.606   0.572   0.574   0.571   0.557   0.561   0.581   0.559   0.580   0.628   0.603   0.594   0.587   0.580   0.562   0.581   0.562   0.540   0.548   0.589   0.599   0.597   0.580   0.557   0.581   0.519   0.516   0.512   0.478   0.498   0.483   0.489   0.520   0.487   0.508   0.517   0.521   0.540   0.600   0.615   0.598   0.600   0.616   0.607   0.607   0.627   0.634   0.632   0.595   0.607   0.594   0.625   0.606   0.575   0.557   0.556   0.547   0.522   0.535
   149.80    0.622   0.582   0.588   0.580   0.628   0.613   0.604   0.579   0.602   0.614   0.600   0.585   0.628   0.619   0.585   0.542   0.500   0.523   0.521   0.547   0.516   0.551   0.562   0.559   0.495   0.513   0.507   0.503   0.543   0.550   0.545   0.562   0.572   0.526   0.524   0.540   0.529   0.575   0.562   0.596   0.570   0.609   0.653   0.621   0.642   0.637   0.629   0.571   0.558   0.523   0.501   0.536   0.494   0.550   0.590   0.590   0.599   0.586   0.580   0.575   0.558   0.607   0.557   0.573   0.573   0.548   0.517   0.514   0.521   0.543   0.511   0.553   0.545   0.582   0.570   0.533   0.536   0.548   0.530   0.502   0.521   0.513   0.521   0.496   0.546   0.525   0.515   0.498   0.500   0.496   0.552   0.523   0.489   0.507   0.510   0.537   0.534   0.558   0.564   0.583   0.628   0.620   0.587   0.606   0.602   0.597   0.600   0.600   0.631   0.620   0.628   0.597   0.596   0.600   0.609   0.595   0.604   0.596   0.624   0.590   0.545   0.605   0.582   0.568   0.602   0.634   0.614   0.572   0.592   0.568   0.557   0.593   0.590   0.581   0.590   0.586   0.574   0.533   0.551   0.525   0.560   0.599   0.609   0.574   0.582   0.580   0.537   0.537   0.581   0.574   0.528   0.535   0.527   0.568   0.599   0.579   0.565   0.585   0.572   0.537   0.538   0.517   0.521   0.494   0.489   0.501   0.478   0.509   0.474   0.449   0.501   0.526   0.573   0.596   0.581   0.569   0.576   0.619   0.581   0.633   0.644   0.617   0.579   0.595   0.612   0.636   0.594   0.581   0.539   0.524   0.507   0.523   0.505
   140.50    0.579   0.574   0.594   0.605   0.627   0.655   0.645   0.658   0.642   0.608   0.585   0.587   0.582   0.558   0.570   0.488   0.489   0.484   0.514   0.532   0.557   0.574   0.579   0.532   0.522   0.482   0.486   0.465   0.527   0.529   0.536   0.548   0.538   0.520   0.497   0.485   0.535   0.536   0.586   0.593   0.593   0.613   0.616   0.688   0.691   0.654   0.646   0.611   0.617   0.546   0.546   0.571   0.515   0.555   0.586   0.590   0.565   0.595   0.580   0.552   0.546   0.567   0.576   0.570   0.572   0.527   0.489   0.512   0.510   0.516   0.516   0.542   0.554   0.559   0.556   0.534   0.528   0.522   0.514   0.515   0.505   0.533   0.535   0.515   0.519   0.520   0.519   0.521   0.518   0.520   0.503   0.500   0.501   0.489   0.491   0.504   0.526   0.558   0.598   0.618   0.597   0.586   0.577   0.571   0.618   0.577   0.573   0.560   0.618   0.623   0.637   0.605   0.557   0.573   0.588   0.623   0.644   0.650   0.623   0.577   0.558   0.547   0.565   0.565   0.550   0.592   0.591   0.558   0.544   0.522   0.572   0.566   0.578   0.600   0.568   0.531   0.545   0.534   0.541   0.546   0.606   0.620   0.579   0.541   0.534   0.533   0.513   0.544   0.556   0.530   0.527   0.587   0.565   0.562   0.564   0.587   0.555   0.579   0.558   0.581   0.564   0.573   0.532   0.530   0.548   0.565   0.521   0.503   0.483   0.457   0.482   0.515   0.569   0.549   0.573   0.555   0.560   0.587   0.645   0.657   0.656   0.582   0.583   0.575   0.571   0.595   0.569   0.561   0.533   0.526   0.525   0.475   0.478
   131.20    0.603   0.598   0.599   0.591   0.599   0.617   0.647   0.659   0.642   0.610   0.617   0.581   0.566   0.555   0.550   0.549   0.518   0.503   0.513   0.557   0.543   0.579   0.568   0.521   0.511   0.494   0.489   0.474   0.514   0.515   0.525   0.543   0.509   0.510   0.506   0.511   0.483   0.535   0.569   0.586   0.613   0.608   0.601   0.649   0.687   0.664   0.652   0.652   0.657   0.592   0.572   0.590   0.560   0.561   0.585   0.602   0.591   0.590   0.604   0.547   0.547   0.594   0.595   0.623   0.589   0.566   0.524   0.483   0.501   0.563   0.566   0.536   0.536   0.560   0.568   0.564   0.536   0.543   0.530   0.502   0.513   0.492   0.535   0.519   0.514   0.537   0.519   0.520   0.527   0.511   0.513   0.508   0.516   0.495   0.494   0.537   0.563   0.535   0.538   0.596   0.625   0.611   0.589   0.632   0.653   0.596   0.600   0.596   0.594   0.628   0.625   0.623   0.598   0.579   0.592   0.607   0.639   0.683   0.666   0.576   0.546   0.547   0.536   0.541   0.543   0.568   0.557   0.536   0.549   0.551   0.592   0.612   0.552   0.528   0.540   0.533   0.522   0.556   0.590   0.559   0.590   0.590   0.582   0.575   0.554   0.550   0.530   0.526   0.547   0.517   0.547   0.572   0.570   0.582   0.550   0.579   0.586   0.574   0.601   0.601   0.588   0.598   0.557   0.524   0.520   0.557   0.516   0.501   0.490   0.486   0.499   0.530   0.566   0.573   0.575   0.573   0.543   0.583   0.619   0.635   0.627   0.596   0.563   0.589   0.596   0.574   0.574   0.562   0.532   0.539   0.530   0.498   0.479
   121.90    0.592   0.611   0.584   0.561   0.601   0.620   0.611   0.636   0.659   0.654   0.653   0.599   0.587   0.599   0.586   0.545   0.501   0.522   0.529   0.551   0.562   0.576   0.548   0.571   0.512   0.498   0.465   0.501   0.501   0.516   0.501   0.487   0.505   0.481   0.477   0.496   0.504   0.496   0.551   0.564   0.617   0.582   0.607   0.631   0.662   0.665   0.656   0.667   0.600   0.614   0.585   0.588   0.594   0.569   0.611   0.623   0.631   0.609   0.547   0.571   0.572   0.529   0.600   0.614   0.640   0.571   0.534   0.529   0.534   0.575   0.563   0.568   0.532   0.530   0.528   0.538   0.565   0.567   0.526   0.542   0.542   0.518   0.521   0.564   0.583   0.558   0.523   0.529   0.546   0.513   0.523   0.502   0.502   0.484   0.469   0.511   0.549   0.603   0.595   0.600   0.619   0.600   0.582   0.626   0.617   0.606   0.564   0.576   0.608   0.641   0.607   0.609   0.603   0.561   0.606   0.594   0.658   0.688   0.620   0.566   0.535   0.538   0.541   0.525   0.533   0.559   0.529   0.555   0.556   0.571   0.554   0.552   0.568   0.565   0.530   0.535   0.494   0.549   0.563   0.541   0.588   0.517   0.561   0.544   0.527   0.539   0.492   0.497   0.548   0.532   0.571   0.557   0.527   0.582   0.548   0.518   0.552   0.582   0.616   0.592   0.554   0.560   0.572   0.517   0.474   0.501   0.491   0.518   0.503   0.507   0.501   0.514   0.558   0.551   0.579   0.560   0.587   0.565   0.591   0.611   0.585   0.534   0.547   0.548   0.579   0.598   0.595   0.542   0.578   0.544   0.541   0.500   0.497
   112.60    0.592   0.556   0.553   0.573   0.633   0.641   0.676   0.658   0.663   0.693   0.661   0.600   0.625   0.598   0.604   0.561   0.565   0.573   0.556   0.556   0.574   0.541   0.558   0.540   0.512   0.540   0.504   0.517   0.511   0.533   0.468   0.462   0.469   0.493   0.474   0.463   0.499   0.521   0.525   0.517   0.576   0.607   0.587   0.592   0.601   0.592   0.597   0.626   0.635   0.616   0.603   0.583   0.606   0.603   0.609   0.657   0.634   0.604   0.587   0.598   0.545   0.546   0.596   0.642   0.609   0.549   0.588   0.531   0.571   0.572   0.574   0.569   0.579   0.574   0.571   0.529   0.557   0.559   0.556   0.520   0.527   0.551   0.574   0.603   0.626   0.595   0.573   0.544   0.554   0.535   0.510   0.513   0.480   0.506   0.489   0.494   0.533   0.573   0.613   0.644   0.630   0.615   0.637   0.619   0.610   0.621   0.572   0.573   0.610   0.634   0.633   0.607   0.557   0.542   0.566   0.565   0.643   0.650   0.586   0.555   0.542   0.528   0.527   0.560   0.563   0.567   0.600   0.611   0.552   0.553   0.556   0.569   0.565   0.567   0.546   0.505   0.506   0.518   0.514   0.517   0.541   0.494   0.529   0.568   0.538   0.503   0.528   0.518   0.534   0.499   0.504   0.529   0.545   0.521   0.527   0.559   0.558   0.585   0.587   0.579   0.544   0.560   0.579   0.534   0.489   0.480   0.520   0.526   0.512   0.499   0.487   0.534   0.527   0.535   0.564   0.560   0.539   0.576   0.576   0.588   0.600   0.527   0.523   0.532   0.572   0.568   0.562   0.518   0.583   0.580   0.552   0.507   0.526
   103.30    0.597   0.560   0.521   0.551   0.630   0.657   0.655   0.661   0.716   0.688   0.649   0.614   0.580   0.642   0.643   0.588   0.598   0.579   0.588   0.560   0.526   0.540   0.507   0.468   0.528   0.537   0.546   0.517   0.478   0.498   0.532   0.526   0.492   0.497   0.464   0.450   0.507   0.530   0.515   0.485   0.554   0.569   0.537   0.586   0.565   0.573   0.567   0.603   0.629   0.552   0.574   0.560   0.580   0.639   0.620   0.596   0.633   0.613   0.595   0.559   0.585   0.562   0.576   0.576   0.578   0.565   0.574   0.576   0.559   0.592   0.579   0.586   0.589   0.584   0.558   0.527   0.556   0.559   0.582   0.595   0.538   0.565   0.577   0.615   0.616   0.593   0.555   0.550   0.544   0.524   0.503   0.506   0.500   0.516   0.529   0.542   0.529   0.586   0.604   0.639   0.607   0.632   0.625   0.599   0.616   0.621   0.618   0.614   0.613   0.612   0.653   0.604   0.509   0.485   0.532   0.549   0.599   0.627   0.626   0.573   0.588   0.548   0.558   0.530   0.526   0.556   0.565   0.558   0.557   0.585   0.548   0.564   0.567   0.556   0.531   0.519   0.496   0.513   0.523   0.537   0.509   0.510   0.508   0.544   0.515   0.497   0.516   0.534   0.515   0.470   0.495   0.514   0.537   0.574   0.549   0.563   0.574   0.581   0.581   0.593   0.584   0.558   0.575   0.549   0.493   0.581   0.556   0.543   0.531   0.458   0.495   0.498   0.524   0.501   0.517   0.531   0.573   0.589   0.589   0.577   0.571   0.522   0.481   0.522   0.538   0.573   0.524   0.530   0.560   0.608   0.603   0.555   0.580
    94.00    0.591   0.569   0.591   0.580   0.615   0.627   0.616   0.639   0.648   0.625   0.652   0.631   0.662   0.633   0.657   0.610   0.620   0.596   0.593   0.539   0.528   0.509   0.483   0.472   0.494   0.479   0.508   0.530   0.527   0.514   0.535   0.526   0.509   0.510   0.478   0.495   0.495   0.525   0.523   0.512   0.548   0.555   0.575   0.543   0.555   0.548   0.591   0.620   0.600   0.559   0.566   0.609   0.595   0.613   0.633   0.620   0.647   0.598   0.626   0.594   0.564   0.571   0.571   0.562   0.579   0.545   0.570   0.560   0.589   0.575   0.561   0.547   0.605   0.588   0.521   0.542   0.575   0.593   0.553   0.542   0.522   0.527   0.539   0.570   0.592   0.553   0.545   0.550   0.547   0.520   0.533   0.528   0.516   0.550   0.529   0.550   0.551   0.570   0.599   0.621   0.587   0.589   0.590   0.635   0.602   0.623   0.627   0.582   0.569   0.585   0.596   0.556   0.517   0.516   0.551   0.544   0.561   0.581   0.584   0.605   0.558   0.553   0.525   0.515   0.516   0.536   0.494   0.531   0.534   0.522   0.554   0.557   0.550   0.542   0.557   0.548   0.520   0.522   0.520   0.555   0.551   0.534   0.475   0.535   0.536   0.485   0.509   0.530   0.472   0.463   0.500   0.497   0.569   0.558   0.537   0.545   0.573   0.553   0.552   0.567   0.582   0.553   0.557   0.527   0.505   0.542   0.551   0.544   0.541   0.494   0.505   0.506   0.516   0.523   0.515   0.540   0.588   0.587   0.596   0.591   0.545   0.537   0.535   0.501   0.556   0.536   0.549   0.515   0.546   0.549   0.572   0.537   0.565
    84.70    0.605   0.618   0.623   0.649   0.605   0.616   0.625   0.607   0.638   0.673   0.642   0.640   0.650   0.639   0.609   0.635   0.597   0.613   0.589   0.540   0.500   0.485   0.448   0.486   0.493   0.527   0.511   0.517   0.535   0.501   0.504   0.520   0.520   0.498   0.490   0.496   0.509   0.549   0.521   0.488   0.500   0.524   0.607   0.572   0.573   0.557   0.595   0.568   0.571   0.590   0.561   0.586   0.596   0.612   0.629   0.653   0.657   0.650   0.584   0.586   0.589   0.573   0.565   0.552   0.547   0.537   0.531   0.536   0.616   0.618   0.584   0.607   0.595   0.581   0.548   0.512   0.544   0.555   0.557   0.558   0.556   0.545   0.500   0.534   0.518   0.509   0.564   0.541   0.557   0.520   0.518   0.504   0.508   0.508   0.551   0.566   0.571   0.581   0.589   0.590   0.625   0.601   0.589   0.613   0.599   0.600   0.569   0.564   0.556   0.556   0.565   0.574   0.570   0.558   0.582   0.543   0.560   0.564   0.589   0.574   0.549   0.535   0.485   0.473   0.509   0.506   0.537   0.530   0.528   0.536   0.564   0.560   0.553   0.559   0.580   0.532   0.524   0.551   0.554   0.554   0.540   0.546   0.490   0.501   0.508   0.511   0.510   0.537   0.532   0.537   0.532   0.515   0.560   0.580   0.560   0.577   0.564   0.545   0.529   0.502   0.556   0.562   0.524   0.488   0.502   0.492   0.493   0.544   0.558   0.521   0.511   0.502   0.493   0.531   0.533   0.508   0.569   0.594   0.575   0.561   0.562   0.530   0.516   0.536   0.558   0.573   0.519   0.533   0.565   0.550   0.537   0.515   0.557
    75.40    0.602   0.603   0.612   0.658   0.635   0.639   0.615   0.617   0.624   0.656   0.671   0.652   0.653   0.627   0.601   0.602   0.565   0.593   0.613   0.522   0.491   0.466   0.462   0.474   0.497   0.527   0.518   0.489   0.525   0.517   0.517   0.508   0.515   0.481   0.485   0.488   0.509   0.542   0.543   0.526   0.549   0.553   0.564   0.594   0.572   0.552   0.566   0.576   0.571   0.554   0.594   0.537   0.565   0.594   0.634   0.648   0.645   0.655   0.569   0.580   0.562   0.542   0.593   0.560   0.558   0.565   0.586   0.584   0.641   0.649   0.643   0.619   0.565   0.557   0.532   0.518   0.527   0.537   0.539   0.547   0.561   0.533   0.537   0.560   0.529   0.524   0.559   0.562   0.522   0.523   0.506   0.487   0.499   0.532   0.544   0.549   0.572   0.573   0.623   0.600   0.611   0.611   0.620   0.607   0.569   0.565   0.549   0.554   0.529   0.524   0.539   0.546   0.574   0.579   0.583   0.568   0.512   0.542   0.549   0.541   0.482   0.500   0.529   0.512   0.524   0.526   0.510   0.502   0.546   0.582   0.581   0.559   0.526   0.549   0.563   0.563   0.540   0.545   0.531   0.554   0.552   0.539   0.530   0.556   0.532   0.513   0.537   0.531   0.532   0.523   0.534   0.504   0.518   0.536   0.528   0.537   0.543   0.544   0.514   0.506   0.532   0.522   0.541   0.556   0.537   0.514   0.526   0.563   0.537   0.519   0.492   0.516   0.522   0.536   0.507   0.528   0.559   0.537   0.559   0.578   0.559   0.540   0.524   0.550   0.562   0.552   0.529   0.540   0.554   0.574   0.524   0.494   0.552
    66.10    0.601   0.569   0.631   0.619   0.590   0.568   0.579   0.599   0.613   0.643   0.632   0.615   0.635   0.593   0.551   0.553   0.574   0.605   0.573   0.491   0.468   0.491   0.494   0.468   0.467   0.489   0.481   0.512   0.543   0.520   0.481   0.497   0.506   0.530   0.477   0.493   0.498   0.488   0.501   0.516   0.532   0.564   0.569   0.556   0.533   0.557   0.565   0.517   0.501   0.532   0.537   0.536   0.575   0.566   0.607   0.658   0.626   0.646   0.597   0.547   0.559   0.564   0.569   0.582   0.586   0.612   0.624   0.617   0.644   0.666   0.641   0.609   0.592   0.607   0.539   0.524   0.521   0.502   0.534   0.524   0.533   0.501   0.509   0.542   0.529   0.537   0.526   0.533   0.535   0.500   0.511   0.514   0.509   0.505   0.559   0.562   0.544   0.564   0.579   0.583   0.589   0.644   0.600   0.568   0.631   0.597   0.578   0.534   0.520   0.525   0.559   0.540   0.584   0.578   0.554   0.548   0.522   0.518   0.549   0.542   0.522   0.516   0.521   0.544   0.569   0.514   0.509   0.504   0.535   0.558   0.539   0.542   0.538   0.508   0.521   0.523   0.523   0.560   0.531   0.557   0.533   0.536   0.509   0.529   0.519   0.517   0.516   0.537   0.500   0.493   0.537   0.483   0.494   0.476   0.494   0.529   0.554   0.504   0.510   0.504   0.515   0.501   0.508   0.548   0.546   0.530   0.525   0.517   0.515   0.533   0.509   0.553   0.544   0.540   0.509   0.554   0.500   0.512   0.548   0.543   0.549   0.546   0.546   0.539   0.531   0.516   0.518   0.515   0.542   0.534   0.535   0.547   0.565
    56.80    0.616   0.605   0.638   0.641   0.634   0.559   0.598   0.572   0.582   0.619   0.639   0.609   0.647   0.617   0.565   0.553   0.552   0.606   0.539   0.523   0.541   0.508   0.482   0.500   0.492   0.516   0.486   0.488   0.502   0.500   0.476   0.477   0.485   0.492   0.528   0.518   0.518   0.536   0.514   0.522   0.531   0.527   0.517   0.543   0.568   0.567   0.540   0.523   0.549   0.550   0.570   0.578   0.586   0.613   0.629   0.640   0.658   0.619   0.592   0.598   0.573   0.577   0.612   0.609   0.615   0.624   0.640   0.635   0.633   0.631   0.586   0.589   0.590   0.592   0.590   0.546   0.544   0.498   0.556   0.502   0.503   0.500   0.509   0.535   0.529   0.536   0.483   0.480   0.504   0.499   0.515   0.451   0.471   0.507   0.567   0.551   0.522   0.524   0.535   0.557   0.584   0.586   0.566   0.581   0.586   0.595   0.568   0.549   0.544   0.562   0.495   0.492   0.518   0.554   0.573   0.528   0.551   0.538   0.536   0.540   0.532   0.533   0.543   0.538   0.576   0.516   0.512   0.500   0.513   0.531   0.532   0.516   0.506   0.487   0.493   0.509   0.527   0.545   0.544   0.539   0.496   0.495   0.504   0.526   0.533   0.543   0.514   0.518   0.492   0.504   0.527   0.481   0.488   0.485   0.511   0.494   0.522   0.507   0.480   0.505   0.508   0.499   0.498   0.512   0.493   0.479   0.515   0.484   0.472   0.514   0.515   0.526   0.536   0.525   0.496   0.545   0.495   0.549   0.584   0.558   0.550   0.544   0.533   0.515   0.499   0.482   0.482   0.449   0.507   0.518   0.553   0.581   0.591
    47.50    0.656   0.654   0.642   0.658   0.648   0.609   0.630   0.610   0.627   0.633   0.626   0.601   0.595   0.612   0.575   0.595   0.540   0.578   0.575   0.553   0.556   0.519   0.517   0.538   0.521   0.546   0.524   0.524   0.482   0.492   0.483   0.486   0.510   0.494   0.505   0.527   0.497   0.536   0.510   0.506   0.514   0.522   0.548   0.566   0.563   0.568   0.534   0.547   0.526   0.521   0.586   0.602   0.609   0.649   0.640   0.657   0.669   0.605   0.590   0.614   0.630   0.617   0.597   0.618   0.596   0.583   0.615   0.618   0.588   0.608   0.582   0.614   0.605   0.582   0.575   0.563   0.546   0.551   0.545   0.510   0.494   0.499   0.538   0.561   0.559   0.528   0.494   0.485   0.484   0.492   0.479   0.494   0.496   0.549   0.578   0.563   0.536   0.579   0.552   0.561   0.526   0.540   0.525   0.580   0.588   0.607   0.620   0.584   0.550   0.524   0.462   0.478   0.497   0.522   0.544   0.554   0.561   0.561   0.539   0.552   0.511   0.553   0.532   0.587   0.589   0.552   0.533   0.512   0.499   0.517   0.519   0.504   0.513   0.497   0.485   0.552   0.562   0.539   0.511   0.516   0.518   0.483   0.497   0.524   0.537   0.560   0.567   0.575   0.524   0.486   0.507   0.498   0.436   0.473   0.474   0.485   0.505   0.499   0.496   0.493   0.489   0.515   0.518   0.515   0.505   0.493   0.501   0.484   0.472   0.518   0.504   0.504   0.525   0.500   0.473   0.513   0.518   0.560   0.585   0.544   0.556   0.563   0.554   0.557   0.468   0.454   0.465   0.497   0.514   0.551   0.596   0.588   0.582
    38.20    0.609   0.644   0.681   0.639   0.609   0.608   0.611   0.662   0.650   0.678   0.616   0.619   0.630   0.601   0.560   0.539   0.556   0.554   0.537   0.555   0.554   0.541   0.503   0.513   0.519   0.515   0.550   0.522   0.515   0.488   0.460   0.478   0.533   0.542   0.486   0.520   0.525   0.504   0.507   0.519   0.499   0.518   0.525   0.534   0.537   0.547   0.526   0.553   0.533   0.548   0.601   0.639   0.661   0.675   0.665   0.680   0.631   0.570   0.583   0.630   0.633   0.603   0.627   0.607   0.584   0.551   0.606   0.586   0.590   0.603   0.622   0.584   0.604   0.600   0.531   0.544   0.537   0.563   0.541   0.498   0.486   0.486   0.523   0.589   0.588   0.543   0.521   0.514   0.539   0.526   0.498   0.494   0.536   0.554   0.578   0.576   0.577   0.558   0.536   0.553   0.532   0.493   0.524   0.609   0.599   0.614   0.604   0.595   0.552   0.536   0.509   0.460   0.455   0.465   0.501   0.553   0.539   0.510   0.526   0.538   0.552   0.528   0.567   0.614   0.620   0.602   0.547   0.509   0.511   0.544   0.514   0.528   0.520   0.523   0.508   0.544   0.560   0.558   0.540   0.504   0.488   0.498   0.488   0.538   0.565   0.552   0.574   0.569   0.559   0.516   0.497   0.476   0.448   0.454   0.485   0.494   0.533   0.530   0.491   0.477   0.477   0.496   0.518   0.529   0.537   0.509   0.476   0.515   0.519   0.541   0.510   0.494   0.448   0.483   0.471   0.477   0.535   0.535   0.556   0.505   0.538   0.588   0.610   0.571   0.539   0.509   0.482   0.491   0.491   0.548   0.594   0.557   0.545
    28.90    0.610   0.659   0.661   0.623   0.583   0.583   0.630   0.644   0.664   0.629   0.632   0.639   0.567   0.578   0.523   0.525   0.574   0.574   0.564   0.546   0.548   0.495   0.497   0.543   0.543   0.540   0.519   0.538   0.520   0.505   0.494   0.499   0.518   0.516   0.502   0.499   0.500   0.508   0.489   0.522   0.517   0.514   0.494   0.526   0.543   0.527   0.513   0.542   0.561   0.559   0.595   0.634   0.650   0.679   0.665   0.652   0.620   0.603   0.575   0.586   0.642   0.637   0.597   0.585   0.566   0.572   0.585   0.584   0.603   0.568   0.552   0.590   0.597   0.629   0.556   0.536   0.509   0.562   0.569   0.562   0.600   0.547   0.541   0.545   0.535   0.574   0.536   0.553   0.538   0.540   0.502   0.538   0.552   0.596   0.569   0.534   0.554   0.540   0.529   0.492   0.465   0.519   0.545   0.602   0.592   0.615   0.561   0.570   0.563   0.530   0.476   0.459   0.464   0.461   0.456   0.509   0.499   0.488   0.525   0.568   0.534   0.575   0.565   0.600   0.590   0.558   0.580   0.526   0.519   0.530   0.548   0.504   0.503   0.517   0.519   0.572   0.574   0.564   0.518   0.487   0.476   0.491   0.525   0.558   0.565   0.547   0.581   0.561   0.549   0.531   0.502   0.489   0.459   0.436   0.490   0.469   0.490   0.510   0.519   0.508   0.498   0.506   0.495   0.493   0.517   0.533   0.532   0.533   0.514   0.516   0.517   0.488   0.461   0.494   0.492   0.495   0.516   0.522   0.540   0.539   0.574   0.583   0.607   0.569   0.504   0.496   0.503   0.533   0.533   0.556   0.572   0.568   0.564
    19.60    0.598   0.601   0.609   0.606   0.596   0.601   0.624   0.644   0.633   0.622   0.600   0.559   0.561   0.548   0.541   0.554   0.567   0.539   0.556   0.541   0.547   0.536   0.527   0.507   0.509   0.518   0.549   0.523   0.536   0.506   0.510   0.481   0.496   0.535   0.489   0.526   0.507   0.488   0.504   0.515   0.525   0.529   0.510   0.533   0.561   0.547   0.563   0.541   0.548   0.550   0.565   0.607   0.609   0.664   0.707   0.659   0.622   0.623   0.605   0.614   0.652   0.616   0.635   0.629   0.622   0.586   0.588   0.563   0.585   0.583   0.552   0.578   0.632   0.629   0.560   0.554   0.530   0.553   0.535   0.571   0.579   0.595   0.572   0.564   0.542   0.585   0.603   0.621   0.567   0.535   0.551   0.577   0.589   0.607   0.557   0.548   0.515   0.515   0.493   0.499   0.530   0.531   0.546   0.593   0.599   0.598   0.574   0.574   0.513   0.519   0.495   0.493   0.516   0.482   0.502   0.515   0.497   0.520   0.558   0.566   0.571   0.545   0.542   0.561   0.561   0.576   0.574   0.592   0.531   0.546   0.522   0.523   0.521   0.519   0.554   0.587   0.572   0.545   0.514   0.509   0.461   0.491   0.508   0.549   0.524   0.561   0.576   0.535   0.519   0.527   0.502   0.503   0.447   0.460   0.476   0.500   0.534   0.517   0.518   0.543   0.528   0.555   0.534   0.529   0.523   0.525   0.527   0.534   0.491   0.488   0.493   0.494   0.497   0.498   0.512   0.482   0.507   0.504   0.529   0.523   0.529   0.563   0.579   0.533   0.483   0.438   0.477   0.533   0.562   0.574   0.549   0.531   0.533
    10.30    0.579   0.566   0.584   0.586   0.623   0.595   0.577   0.596   0.601   0.612   0.597   0.564   0.572   0.590   0.563   0.554   0.553   0.533   0.585   0.565   0.590   0.575   0.551   0.516   0.503   0.532   0.520   0.531   0.506   0.505   0.474   0.490   0.488   0.512   0.514   0.519   0.520   0.484   0.491   0.505   0.532   0.524   0.496   0.540   0.538   0.529   0.585   0.530   0.570   0.576   0.574   0.581   0.587   0.599   0.655   0.656   0.616   0.622   0.626   0.651   0.639   0.626   0.613   0.632   0.607   0.572   0.546   0.529   0.559   0.556   0.574   0.586   0.630   0.641   0.614   0.562   0.572   0.525   0.529   0.543   0.542   0.555   0.575   0.572   0.570   0.619   0.665   0.640   0.587   0.570   0.524   0.603   0.634   0.587   0.592   0.552   0.536   0.500   0.506   0.491   0.536   0.500   0.534   0.547   0.599   0.614   0.584   0.567   0.510   0.494   0.477   0.481   0.509   0.528   0.533   0.565   0.555   0.522   0.550   0.576   0.560   0.516   0.556   0.530   0.519   0.541   0.551   0.552   0.553   0.561   0.508   0.505   0.514   0.535   0.543   0.554   0.561   0.527   0.550   0.521   0.488   0.489   0.533   0.529   0.553   0.595   0.572   0.588   0.521   0.543   0.497   0.490   0.467   0.496   0.482   0.515   0.550   0.551   0.576   0.553   0.551   0.524   0.538   0.524   0.515   0.507   0.468   0.472   0.523   0.503   0.509   0.536   0.503   0.488   0.489   0.504   0.473   0.513   0.555   0.535   0.549   0.550   0.553   0.536   0.483   0.487   0.512   0.537   0.545   0.588   0.551   0.528   0.543
     1.00    0.573   0.588   0.603   0.617   0.609   0.598   0.564   0.570   0.609   0.604   0.614   0.609   0.622   0.603   0.567   0.573   0.568   0.560   0.561   0.570   0.602   0.604   0.551   0.515   0.504   0.512   0.510   0.487   0.508   0.498   0.499   0.483   0.503   0.511   0.492   0.486   0.513   0.516   0.517   0.524   0.515   0.488   0.539   0.510   0.528   0.548   0.568   0.544   0.539   0.539   0.547   0.560   0.574   0.549   0.600   0.616   0.609   0.638   0.661   0.622   0.661   0.645   0.610   0.644   0.597   0.595   0.581   0.580   0.537   0.556   0.558   0.562   0.571   0.591   0.635   0.618   0.579   0.526   0.493   0.529   0.523   0.559   0.573   0.594   0.600   0.603   0.635   0.635   0.592   0.556   0.589   0.573   0.614   0.587   0.580   0.565   0.510   0.503   0.489   0.517   0.548   0.545   0.530   0.553   0.551   0.580   0.592   0.532   0.511   0.490   0.506   0.520   0.536   0.561   0.554   0.563   0.565   0.568   0.589   0.573   0.549   0.594   0.553   0.536   0.532   0.544   0.543   0.571   0.578   0.544   0.572   0.524   0.485   0.498   0.531   0.527   0.543   0.527   0.525   0.536   0.492   0.502   0.529   0.521   0.545   0.581   0.577   0.520   0.540   0.518   0.482   0.463   0.475   0.501   0.493   0.532   0.558   0.564   0.557   0.558   0.557   0.513   0.536   0.525   0.525   0.496   0.461   0.482   0.484   0.462   0.463   0.510   0.518   0.527   0.498   0.488   0.517   0.509   0.527   0.543   0.531   0.543   0.540   0.494   0.472   0.477   0.519   0.519   0.533   0.565   0.545   0.521   0.524

   Height   Standard deviation at grid points for the v component:
   354.40    0.470   0.479   0.469   0.450   0.448   0.458   0.460   0.493   0.497   0.491   0.470   0.455   0.465   0.474   0.466   0.462   0.477   0.454   0.439   0.409   0.422   0.442   0.411   0.421   0.436   0.437   0.451   0.434   0.444   0.435   0.466   0.474   0.459   0.446   0.454   0.453   0.456   0.444   0.462   0.496   0.464   0.483   0.477   0.471   0.460   0.478   0.481   0.457   0.455   0.477   0.475   0.490   0.481   0.476   0.476   0.453   0.442   0.468   0.479   0.465   0.449   0.465   0.458   0.472   0.478   0.460   0.469   0.466   0.474   0.438   0.413   0.445   0.490   0.483   0.495   0.465   0.442   0.441   0.471   0.488   0.455   0.464   0.452   0.433   0.417   0.417   0.437   0.444   0.455   0.469   0.460   0.471   0.467   0.474   0.486   0.483   0.488   0.488   0.486   0.468   0.467   0.458   0.458   0.468   0.448   0.465   0.440   0.472   0.463   0.463   0.471   0.476   0.454   0.463   0.498   0.475   0.478   0.491   0.510   0.526   0.515   0.493   0.463   0.438   0.449   0.445   0.465   0.466   0.470   0.484   0.475   0.487   0.485   0.477   0.476   0.495   0.512   0.499   0.528   0.530   0.521   0.528   0.523   0.528   0.529   0.530   0.533   0.517   0.511   0.503   0.471   0.460   0.486   0.470   0.481   0.507   0.491   0.475   0.456   0.437   0.442   0.450   0.472   0.467   0.494   0.448   0.458   0.453   0.453   0.410   0.404   0.423   0.427   0.405   0.449   0.430   0.429   0.436   0.411   0.442   0.444   0.476   0.471   0.466   0.485   0.480   0.497   0.492   0.484   0.452   0.445   0.457   0.462
   345.10    0.476   0.486   0.472   0.459   0.448   0.465   0.498   0.474   0.481   0.483   0.482   0.449   0.453   0.476   0.464   0.475   0.489   0.473   0.471   0.428   0.438   0.457   0.428   0.428   0.427   0.445   0.443   0.445   0.434   0.460   0.451   0.455   0.456   0.439   0.456   0.461   0.464   0.472   0.483   0.475   0.459   0.485   0.481   0.446   0.462   0.478   0.465   0.443   0.460   0.479   0.474   0.492   0.493   0.505   0.459   0.455   0.456   0.448   0.464   0.449   0.450   0.445   0.436   0.446   0.454   0.442   0.430   0.435   0.433   0.433   0.437   0.434   0.466   0.482   0.480   0.474   0.444   0.451   0.451   0.482   0.461   0.461   0.440   0.427   0.404   0.398   0.422   0.435   0.439   0.442   0.439   0.475   0.470   0.457   0.477   0.490   0.503   0.504   0.484   0.471   0.480   0.461   0.467   0.473   0.457   0.445   0.451   0.461   0.457   0.479   0.472   0.449   0.429   0.435   0.466   0.470   0.463   0.504   0.523   0.552   0.506   0.495   0.468   0.442   0.452   0.433   0.446   0.468   0.462   0.458   0.460   0.479   0.473   0.502   0.475   0.477   0.487   0.499   0.511   0.529   0.526   0.502   0.505   0.534   0.546   0.548   0.530   0.543   0.496   0.467   0.463   0.480   0.457   0.474   0.476   0.491   0.482   0.483   0.440   0.439   0.440   0.474   0.481   0.476   0.449   0.451   0.462   0.468   0.433   0.426   0.423   0.451   0.428   0.432   0.442   0.435   0.432   0.436   0.431   0.424   0.452   0.482   0.466   0.459   0.455   0.487   0.504   0.487   0.478   0.457   0.460   0.451   0.477
   335.80    0.489   0.501   0.487   0.454   0.471   0.472   0.448   0.478   0.490   0.503   0.482   0.502   0.453   0.458   0.471   0.486   0.496   0.479   0.475   0.449   0.432   0.438   0.428   0.452   0.428   0.438   0.428   0.436   0.441   0.437   0.439   0.466   0.443   0.433   0.448   0.477   0.485   0.496   0.502   0.490   0.469   0.469   0.456   0.451   0.452   0.466   0.464   0.449   0.471   0.475   0.487   0.492   0.494   0.480   0.459   0.472   0.461   0.452   0.447   0.460   0.441   0.444   0.435   0.438   0.448   0.444   0.441   0.436   0.443   0.460   0.458   0.447   0.450   0.454   0.483   0.455   0.455   0.482   0.476   0.463   0.477   0.463   0.425   0.425   0.428   0.422   0.424   0.425   0.435   0.464   0.468   0.446   0.467   0.481   0.484   0.501   0.480   0.498   0.461   0.489   0.461   0.437   0.459   0.454   0.459   0.456   0.449   0.449   0.443   0.474   0.469   0.439   0.458   0.438   0.453   0.471   0.479   0.500   0.494   0.496   0.500   0.498   0.465   0.474   0.478   0.460   0.444   0.466   0.460   0.461   0.458   0.479   0.487   0.487   0.486   0.485   0.472   0.469   0.486   0.501   0.500   0.520   0.522   0.525   0.546   0.549   0.522   0.499   0.512   0.482   0.483   0.464   0.479   0.459   0.475   0.472   0.490   0.488   0.469   0.455   0.450   0.469   0.492   0.470   0.437   0.437   0.457   0.460   0.442   0.440   0.440   0.453   0.439   0.430   0.470   0.444   0.452   0.453   0.458   0.443   0.449   0.454   0.445   0.451   0.454   0.466   0.491   0.483   0.477   0.474   0.478   0.459   0.493
   326.50    0.487   0.475   0.471   0.454   0.467   0.467   0.465   0.470   0.484   0.493   0.492   0.471   0.471   0.462   0.469   0.467   0.488   0.467   0.449   0.459   0.441   0.446   0.422   0.451   0.435   0.421   0.456   0.444   0.453   0.430   0.416   0.424   0.455   0.463   0.468   0.490   0.501   0.471   0.497   0.479   0.481   0.459   0.457   0.478   0.495   0.456   0.457   0.445   0.460   0.470   0.456   0.463   0.453   0.473   0.432   0.425   0.445   0.447   0.440   0.435   0.450   0.442   0.448   0.446   0.446   0.432   0.431   0.450   0.471   0.473   0.457   0.465   0.445   0.447   0.473   0.460   0.479   0.494   0.489   0.471   0.474   0.440   0.429   0.440   0.423   0.436   0.434   0.417   0.437   0.441   0.454   0.476   0.485   0.493   0.487   0.499   0.488   0.482   0.467   0.486   0.437   0.452   0.464   0.435   0.458   0.439   0.429   0.438   0.446   0.445   0.449   0.445   0.448   0.454   0.468   0.471   0.463   0.471   0.482   0.486   0.487   0.488   0.497   0.500   0.493   0.458   0.458   0.454   0.454   0.473   0.479   0.466   0.465   0.466   0.466   0.480   0.468   0.468   0.489   0.480   0.507   0.523   0.495   0.492   0.520   0.543   0.512   0.511   0.496   0.459   0.452   0.435   0.445   0.456   0.475   0.468   0.467   0.485   0.472   0.477   0.442   0.463   0.480   0.452   0.434   0.439   0.433   0.435   0.448   0.461   0.466   0.459   0.467   0.441   0.463   0.452   0.448   0.440   0.448   0.428   0.440   0.438   0.431   0.432   0.445   0.477   0.486   0.481   0.466   0.464   0.472   0.476   0.464
[...]
   103.30    0.281   0.276   0.270   0.275   0.277   0.279   0.291   0.281   0.293   0.303   0.302   0.281   0.273   0.272   0.286   0.289   0.285   0.279   0.273   0.270   0.285   0.290   0.285   0.275   0.278   0.279   0.279   0.286   0.294   0.291   0.292   0.293   0.289   0.288   0.286   0.286   0.278   0.287   0.285   0.284   0.291   0.297   0.293   0.302   0.300   0.300   0.290   0.292   0.289   0.296   0.299   0.302   0.299   0.291   0.283   0.285   0.290   0.281   0.290   0.287   0.291   0.287   0.292   0.299   0.304   0.302   0.310   0.288   0.295   0.292   0.299   0.293   0.291   0.293   0.290   0.287   0.302   0.281   0.290   0.282   0.293   0.298   0.299   0.293   0.291   0.284   0.286   0.296   0.285   0.279   0.276   0.278   0.279   0.275   0.275   0.274   0.276   0.283   0.293   0.283   0.297   0.294   0.291   0.294   0.296   0.292   0.277   0.285   0.286   0.288   0.284   0.275   0.282   0.279   0.278   0.284   0.282   0.289   0.276   0.287   0.289   0.289   0.293   0.291   0.294   0.281   0.284   0.284   0.301   0.291   0.296   0.289   0.286   0.289   0.287   0.290   0.287   0.290   0.287   0.280   0.287   0.299   0.296   0.295   0.298   0.301   0.296   0.285   0.285   0.292   0.288   0.276   0.279   0.273   0.265   0.282   0.287   0.291   0.296   0.292   0.290   0.293   0.290   0.289   0.304   0.287   0.284   0.285   0.285   0.288   0.289   0.283   0.284   0.283   0.285   0.285   0.291   0.290   0.286   0.290   0.296   0.287   0.284   0.287   0.287   0.287   0.288   0.285   0.283   0.276   0.279   0.284   0.292
    94.00    0.271   0.267   0.277   0.278   0.283   0.278   0.282   0.278   0.287   0.288   0.293   0.287   0.283   0.277   0.288   0.299   0.296   0.288   0.274   0.275   0.271   0.285   0.289   0.279   0.279   0.284   0.275   0.290   0.288   0.286   0.294   0.298   0.289   0.291   0.284   0.289   0.290   0.283   0.288   0.285   0.287   0.290   0.294   0.295   0.294   0.292   0.292   0.289   0.282   0.291   0.298   0.297   0.295   0.285   0.289   0.288   0.290   0.292   0.284   0.290   0.291   0.292   0.284   0.289   0.294   0.288   0.299   0.292   0.289   0.291   0.291   0.284   0.290   0.298   0.295   0.288   0.288   0.284   0.287   0.285   0.291   0.287   0.309   0.297   0.294   0.285   0.282   0.283   0.287   0.281   0.273   0.282   0.286   0.287   0.275   0.278   0.274   0.288   0.293   0.290   0.291   0.298   0.301   0.293   0.287   0.289   0.282   0.285   0.287   0.279   0.279   0.278   0.275   0.284   0.277   0.286   0.282   0.288   0.287   0.289   0.290   0.290   0.295   0.288   0.287   0.292   0.273   0.285   0.288   0.295   0.292   0.296   0.294   0.297   0.288   0.285   0.294   0.292   0.292   0.286   0.297   0.298   0.302   0.293   0.290   0.294   0.295   0.287   0.279   0.282   0.293   0.285   0.283   0.276   0.274   0.276   0.289   0.300   0.296   0.292   0.296   0.304   0.294   0.293   0.292   0.291   0.292   0.291   0.293   0.292   0.288   0.280   0.280   0.283   0.286   0.295   0.290   0.284   0.284   0.290   0.298   0.287   0.291   0.293   0.293   0.280   0.283   0.293   0.290   0.282   0.288   0.287   0.291
    84.70    0.279   0.272   0.281   0.289   0.286   0.280   0.269   0.282   0.278   0.279   0.282   0.289   0.292   0.285   0.290   0.286   0.283   0.284   0.272   0.265   0.273   0.279   0.281   0.283   0.281   0.286   0.276   0.284   0.288   0.300   0.290   0.283   0.282   0.285   0.280   0.290   0.299   0.300   0.291   0.285   0.279   0.291   0.299   0.293   0.286   0.281   0.287   0.294   0.291   0.288   0.298   0.304   0.289   0.289   0.295   0.295   0.288   0.286   0.281   0.279   0.278   0.284   0.291   0.284   0.286   0.289   0.303   0.293   0.289   0.292   0.295   0.288   0.284   0.287   0.287   0.298   0.286   0.293   0.291   0.298   0.303   0.291   0.291   0.298   0.289   0.281   0.284   0.285   0.294   0.283   0.281   0.273   0.287   0.285   0.279   0.275   0.285   0.281   0.301   0.298   0.291   0.298   0.298   0.296   0.298   0.290   0.287   0.288   0.285   0.284   0.287   0.281   0.277   0.279   0.292   0.289   0.290   0.297   0.292   0.284   0.292   0.282   0.294   0.288   0.293   0.281   0.281   0.295   0.291   0.302   0.299   0.299   0.302   0.296   0.284   0.286   0.281   0.296   0.280   0.284   0.290   0.291   0.289   0.291   0.286   0.284   0.287   0.285   0.283   0.282   0.284   0.285   0.288   0.283   0.273   0.283   0.280   0.288   0.285   0.288   0.283   0.291   0.296   0.296   0.296   0.297   0.293   0.292   0.281   0.293   0.286   0.278   0.278   0.279   0.284   0.280   0.289   0.287   0.286   0.288   0.296   0.296   0.304   0.291   0.288   0.288   0.286   0.290   0.288   0.281   0.277   0.274   0.283
    75.40    0.276   0.276   0.277   0.295   0.283   0.282   0.282   0.273   0.271   0.269   0.286   0.289   0.287   0.294   0.295   0.291   0.282   0.285   0.273   0.281   0.271   0.276   0.273   0.276   0.275   0.278   0.284   0.284   0.278   0.286   0.285   0.287   0.283   0.281   0.284   0.285   0.289   0.299   0.297   0.291   0.285   0.295   0.295   0.297   0.291   0.288   0.288   0.298   0.294   0.294   0.290   0.284   0.279   0.283   0.286   0.293   0.290   0.293   0.285   0.282   0.280   0.272   0.281   0.286   0.288   0.283   0.293   0.300   0.302   0.295   0.299   0.287   0.282   0.292   0.296   0.297   0.290   0.288   0.296   0.295   0.294   0.289   0.298   0.298   0.285   0.291   0.285   0.284   0.288   0.288   0.283   0.279   0.279   0.281   0.273   0.279   0.283   0.288   0.286   0.293   0.293   0.302   0.305   0.298   0.304   0.298   0.300   0.293   0.281   0.291   0.287   0.276   0.279   0.286   0.292   0.285   0.287   0.288   0.286   0.288   0.286   0.287   0.285   0.291   0.287   0.286   0.292   0.291   0.300   0.294   0.298   0.301   0.300   0.293   0.277   0.272   0.280   0.292   0.288   0.283   0.288   0.295   0.290   0.289   0.291   0.288   0.283   0.285   0.278   0.281   0.285   0.296   0.287   0.287   0.286   0.288   0.290   0.290   0.283   0.274   0.282   0.292   0.291   0.288   0.303   0.289   0.292   0.282   0.283   0.277   0.286   0.281   0.280   0.277   0.276   0.287   0.286   0.284   0.285   0.288   0.294   0.293   0.292   0.288   0.285   0.289   0.292   0.285   0.286   0.294   0.276   0.262   0.277
    66.10    0.279   0.284   0.285   0.291   0.289   0.283   0.279   0.272   0.271   0.267   0.278   0.283   0.289   0.284   0.285   0.288   0.282   0.283   0.280   0.271   0.269   0.277   0.267   0.272   0.272   0.272   0.272   0.285   0.283   0.280   0.284   0.292   0.288   0.279   0.285   0.276   0.289   0.296   0.296   0.297   0.287   0.288   0.293   0.288   0.289   0.292   0.305   0.298   0.306   0.294   0.287   0.276   0.286   0.286   0.279   0.293   0.297   0.288   0.288   0.289   0.287   0.285   0.283   0.283   0.279   0.285   0.287   0.294   0.297   0.293   0.291   0.284   0.285   0.298   0.302   0.290   0.289   0.291   0.290   0.287   0.298   0.297   0.295   0.300   0.297   0.283   0.276   0.289   0.293   0.290   0.285   0.276   0.271   0.274   0.284   0.281   0.277   0.290   0.287   0.282   0.289   0.292   0.291   0.294   0.301   0.293   0.299   0.287   0.284   0.290   0.294   0.281   0.293   0.286   0.293   0.293   0.284   0.286   0.289   0.288   0.283   0.280   0.282   0.287   0.286   0.288   0.291   0.285   0.292   0.296   0.301   0.292   0.293   0.283   0.284   0.285   0.275   0.282   0.281   0.285   0.278   0.288   0.283   0.288   0.288   0.287   0.281   0.278   0.285   0.286   0.295   0.290   0.286   0.285   0.286   0.287   0.290   0.287   0.273   0.273   0.280   0.287   0.292   0.282   0.293   0.295   0.285   0.292   0.276   0.279   0.283   0.289   0.276   0.274   0.279   0.277   0.277   0.283   0.281   0.281   0.281   0.292   0.291   0.288   0.281   0.284   0.278   0.285   0.285   0.287   0.268   0.270   0.265
    56.80    0.276   0.281   0.280   0.289   0.288   0.289   0.277   0.283   0.276   0.276   0.277   0.274   0.281   0.280   0.267   0.277   0.280   0.284   0.273   0.267   0.269   0.283   0.273   0.262   0.267   0.280   0.272   0.269   0.282   0.283   0.284   0.285   0.284   0.280   0.278   0.279   0.288   0.289   0.303   0.299   0.288   0.279   0.293   0.285   0.288   0.294   0.298   0.299   0.292   0.292   0.285   0.271   0.276   0.283   0.280   0.285   0.288   0.282   0.291   0.298   0.282   0.276   0.276   0.279   0.281   0.285   0.293   0.287   0.291   0.285   0.284   0.286   0.280   0.282   0.297   0.284   0.285   0.292   0.294   0.295   0.294   0.290   0.297   0.304   0.294   0.294   0.292   0.294   0.287   0.286   0.294   0.282   0.281   0.279   0.289   0.293   0.298   0.288   0.282   0.288   0.284   0.280   0.284   0.290   0.304   0.304   0.300   0.294   0.274   0.290   0.280   0.287   0.296   0.300   0.307   0.291   0.294   0.277   0.284   0.290   0.283   0.275   0.286   0.290   0.283   0.288   0.283   0.285   0.289   0.296   0.297   0.292   0.290   0.287   0.287   0.286   0.284   0.281   0.289   0.283   0.285   0.281   0.287   0.291   0.290   0.290   0.285   0.285   0.280   0.279   0.285   0.287   0.286   0.290   0.288   0.290   0.287   0.291   0.285   0.275   0.279   0.286   0.284   0.287   0.285   0.294   0.288   0.281   0.273   0.276   0.285   0.287   0.283   0.278   0.276   0.276   0.287   0.276   0.285   0.288   0.290   0.286   0.288   0.294   0.284   0.269   0.268   0.279   0.270   0.279   0.275   0.266   0.278
    47.50    0.277   0.280   0.278   0.288   0.281   0.281   0.279   0.288   0.285   0.275   0.278   0.278   0.279   0.271   0.265   0.271   0.280   0.277   0.266   0.268   0.273   0.272   0.274   0.270   0.272   0.277   0.272   0.274   0.285   0.281   0.280   0.280   0.276   0.268   0.275   0.271   0.288   0.297   0.300   0.305   0.291   0.282   0.281   0.293   0.293   0.292   0.290   0.294   0.285   0.283   0.286   0.281   0.278   0.276   0.283   0.283   0.285   0.274   0.289   0.290   0.286   0.279   0.285   0.285   0.279   0.283   0.289   0.286   0.293   0.284   0.289   0.291   0.285   0.287   0.287   0.274   0.276   0.280   0.287   0.295   0.292   0.296   0.289   0.296   0.305   0.299   0.307   0.291   0.290   0.286   0.294   0.287   0.282   0.283   0.288   0.289   0.297   0.286   0.289   0.294   0.285   0.295   0.288   0.285   0.296   0.299   0.297   0.301   0.285   0.283   0.288   0.286   0.297   0.299   0.298   0.292   0.286   0.282   0.291   0.294   0.297   0.296   0.286   0.287   0.281   0.289   0.286   0.285   0.283   0.282   0.288   0.296   0.297   0.298   0.291   0.286   0.288   0.289   0.281   0.281   0.287   0.291   0.291   0.283   0.281   0.286   0.280   0.276   0.284   0.290   0.286   0.287   0.290   0.288   0.290   0.293   0.289   0.287   0.289   0.280   0.286   0.284   0.281   0.287   0.285   0.285   0.279   0.275   0.272   0.284   0.276   0.277   0.278   0.278   0.279   0.290   0.280   0.284   0.292   0.294   0.285   0.284   0.290   0.286   0.279   0.276   0.276   0.274   0.274   0.276   0.270   0.274   0.274
    38.20    0.278   0.280   0.278   0.267   0.281   0.277   0.286   0.284   0.283   0.275   0.273   0.273   0.277   0.266   0.267   0.275   0.283   0.265   0.272   0.276   0.286   0.283   0.265   0.267   0.283   0.275   0.279   0.279   0.282   0.279   0.266   0.271   0.281   0.269   0.265   0.272   0.277   0.285   0.289   0.299   0.289   0.279   0.282   0.273   0.280   0.281   0.284   0.277   0.284   0.278   0.275   0.274   0.271   0.277   0.286   0.292   0.290   0.284   0.298   0.288   0.274   0.274   0.281   0.284   0.289   0.289   0.297   0.301   0.303   0.293   0.285   0.274   0.284   0.287   0.282   0.275   0.276   0.280   0.288   0.289   0.286   0.291   0.281   0.294   0.301   0.294   0.299   0.293   0.301   0.296   0.284   0.282   0.282   0.284   0.286   0.284   0.290   0.299   0.288   0.284   0.290   0.287   0.290   0.287   0.292   0.302   0.298   0.302   0.293   0.281   0.286   0.296   0.293   0.299   0.292   0.292   0.289   0.282   0.280   0.283   0.293   0.292   0.291   0.296   0.290   0.286   0.289   0.282   0.290   0.279   0.286   0.296   0.290   0.286   0.282   0.289   0.295   0.287   0.287   0.278   0.280   0.297   0.292   0.288   0.281   0.278   0.287   0.289   0.278   0.280   0.280   0.286   0.285   0.284   0.286   0.288   0.290   0.292   0.287   0.284   0.285   0.292   0.292   0.280   0.285   0.283   0.274   0.268   0.270   0.273   0.279   0.282   0.272   0.277   0.280   0.278   0.287   0.287   0.288   0.290   0.294   0.287   0.292   0.294   0.277   0.280   0.277   0.274   0.272   0.278   0.284   0.273   0.272
    28.90    0.285   0.289   0.271   0.271   0.270   0.272   0.276   0.285   0.284   0.275   0.274   0.273   0.269   0.267   0.264   0.268   0.280   0.287   0.289   0.285   0.277   0.276   0.266   0.270   0.266   0.282   0.278   0.277   0.283   0.276   0.281   0.270   0.266   0.274   0.272   0.275   0.267   0.278   0.279   0.298   0.294   0.282   0.282   0.275   0.275   0.270   0.280   0.288   0.278   0.285   0.279   0.270   0.276   0.274   0.283   0.291   0.293   0.279   0.291   0.283   0.286   0.279   0.281   0.270   0.278   0.295   0.301   0.291   0.295   0.293   0.286   0.287   0.281   0.275   0.281   0.285   0.282   0.282   0.280   0.288   0.283   0.285   0.286   0.291   0.290   0.294   0.289   0.288   0.287   0.294   0.282   0.284   0.291   0.296   0.295   0.295   0.297   0.292   0.292   0.282   0.285   0.295   0.291   0.294   0.300   0.305   0.308   0.303   0.285   0.288   0.284   0.297   0.295   0.299   0.295   0.289   0.288   0.281   0.282   0.289   0.292   0.294   0.290   0.290   0.290   0.285   0.282   0.290   0.288   0.283   0.281   0.294   0.284   0.292   0.293   0.291   0.297   0.295   0.280   0.281   0.283   0.293   0.291   0.289   0.294   0.292   0.277   0.279   0.276   0.288   0.289   0.295   0.288   0.286   0.284   0.285   0.292   0.286   0.286   0.281   0.291   0.290   0.290   0.280   0.267   0.279   0.275   0.273   0.273   0.272   0.290   0.289   0.288   0.280   0.286   0.283   0.281   0.290   0.282   0.287   0.287   0.284   0.288   0.286   0.276   0.285   0.278   0.270   0.270   0.278   0.284   0.276   0.270
    19.60    0.284   0.277   0.277   0.277   0.275   0.280   0.287   0.286   0.280   0.272   0.276   0.263   0.269   0.266   0.271   0.276   0.276   0.277   0.286   0.288   0.281   0.275   0.267   0.274   0.280   0.285   0.278   0.288   0.288   0.283   0.273   0.274   0.274   0.282   0.280   0.272   0.272   0.280   0.284   0.297   0.302   0.293   0.273   0.281   0.284   0.278   0.275   0.277   0.276   0.292   0.273   0.273   0.278   0.278   0.283   0.283   0.285   0.286   0.293   0.291   0.278   0.279   0.273   0.275   0.282   0.286   0.288   0.295   0.286   0.290   0.296   0.293   0.294   0.285   0.295   0.292   0.288   0.285   0.279   0.276   0.277   0.282   0.285   0.287   0.278   0.281   0.283   0.283   0.290   0.294   0.285   0.282   0.293   0.295   0.286   0.295   0.286   0.277   0.292   0.284   0.282   0.296   0.288   0.289   0.295   0.294   0.310   0.314   0.295   0.298   0.293   0.299   0.301   0.301   0.296   0.289   0.286   0.278   0.278   0.294   0.297   0.292   0.286   0.282   0.287   0.287   0.294   0.293   0.289   0.290   0.279   0.292   0.293   0.287   0.287   0.294   0.291   0.290   0.281   0.281   0.289   0.288   0.283   0.296   0.293   0.294   0.289   0.279   0.288   0.280   0.292   0.297   0.292   0.287   0.285   0.296   0.290   0.285   0.284   0.297   0.282   0.295   0.285   0.274   0.273   0.270   0.271   0.279   0.262   0.267   0.277   0.281   0.279   0.280   0.277   0.278   0.285   0.283   0.279   0.298   0.294   0.283   0.288   0.285   0.283   0.290   0.280   0.277   0.271   0.271   0.279   0.270   0.280
    10.30    0.283   0.293   0.286   0.286   0.277   0.278   0.283   0.284   0.277   0.261   0.271   0.269   0.269   0.270   0.266   0.280   0.279   0.278   0.274   0.281   0.275   0.290   0.279   0.285   0.280   0.284   0.281   0.287   0.285   0.286   0.288   0.283   0.276   0.282   0.277   0.277   0.286   0.283   0.288   0.292   0.293   0.282   0.275   0.277   0.276   0.276   0.286   0.279   0.281   0.277   0.272   0.276   0.269   0.282   0.291   0.284   0.288   0.284   0.287   0.292   0.271   0.275   0.267   0.272   0.273   0.275   0.285   0.287   0.283   0.293   0.298   0.303   0.297   0.294   0.292   0.296   0.287   0.285   0.284   0.279   0.275   0.283   0.288   0.286   0.280   0.279   0.275   0.288   0.286   0.287   0.286   0.286   0.287   0.286   0.286   0.285   0.285   0.267   0.276   0.276   0.288   0.291   0.285   0.291   0.287   0.301   0.317   0.311   0.303   0.296   0.293   0.295   0.291   0.288   0.290   0.292   0.283   0.287   0.285   0.288   0.300   0.295   0.291   0.280   0.283   0.299   0.287   0.296   0.286   0.283   0.291   0.288   0.280   0.285   0.281   0.283   0.281   0.281   0.271   0.278   0.280   0.286   0.279   0.290   0.284   0.298   0.291   0.285   0.284   0.279   0.292   0.295   0.294   0.290   0.289   0.298   0.287   0.275   0.277   0.291   0.297   0.286   0.285   0.277   0.271   0.270   0.278   0.283   0.268   0.271   0.270   0.269   0.280   0.285   0.280   0.281   0.290   0.288   0.282   0.284   0.289   0.285   0.289   0.281   0.287   0.289   0.288   0.278   0.275   0.275   0.276   0.278   0.280
     1.00    0.284   0.285   0.281   0.280   0.276   0.274   0.281   0.272   0.275   0.283   0.275   0.278   0.276   0.279   0.272   0.273   0.281   0.275   0.275   0.285   0.284   0.274   0.281   0.284   0.287   0.284   0.285   0.287   0.290   0.284   0.286   0.283   0.282   0.289   0.283   0.278   0.285   0.291   0.289   0.295   0.279   0.275   0.273   0.275   0.276   0.277   0.274   0.278   0.278   0.278   0.277   0.277   0.282   0.282   0.282   0.283   0.282   0.285   0.287   0.294   0.286   0.279   0.277   0.276   0.278   0.278   0.280   0.280   0.280   0.288   0.298   0.292   0.300   0.296   0.295   0.286   0.284   0.283   0.286   0.291   0.274   0.281   0.280   0.286   0.291   0.293   0.278   0.281   0.286   0.274   0.283   0.285   0.282   0.281   0.280   0.283   0.280   0.289   0.281   0.272   0.285   0.285   0.290   0.299   0.298   0.300   0.299   0.302   0.298   0.301   0.296   0.297   0.290   0.287   0.290   0.282   0.294   0.291   0.290   0.298   0.296   0.295   0.288   0.280   0.287   0.291   0.294   0.289   0.294   0.285   0.291   0.287   0.276   0.280   0.276   0.272   0.268   0.277   0.273   0.275   0.272   0.281   0.290   0.288   0.282   0.288   0.291   0.296   0.294   0.291   0.288   0.297   0.298   0.296   0.299   0.295   0.285   0.286   0.286   0.284   0.289   0.284   0.280   0.280   0.279   0.270   0.265   0.268   0.276   0.272   0.276   0.277   0.270   0.273   0.281   0.287   0.287   0.283   0.280   0.286   0.287   0.293   0.298   0.288   0.277   0.287   0.275   0.285   0.274   0.278   0.282   0.273   0.274

   Mean standard deviation across all grid points:
      u component:    0.551 m/s
      v component:    0.468 m/s
      w component:    0.284 m/s


U-component (X) statistics from the interpolated hub point:

   Mean =   9.7063 m/s
   TI   =   5.3003 %


Processing complete.  2.12655E+05 CPU seconds used.
