
This summary file was generated by TurbSim (from OpenFAST-v3.5.3) on 20-Apr-2025 at 00:17:48.


Runtime Options:

1341164796  Random seed #1
    RANLUX  Type of random number generator
         F  Output binary HH turbulence parameters?
         F  Output formatted turbulence parameters?
         F  Output AeroDyn HH files?
         T  Output AeroDyn FF files?
         F  Output BLADED FF files?
         F  Output tower data?
         F  Output HAWC FF files?
         F  Output formatted FF files?
         T  Output coherent turbulence time step file?
 0 -  NONE  IEC turbulence models scaled to exact specified standard deviation


Turbine/Model Specifications:

        39  Vertical grid-point matrix dimension
       193  Horizontal grid-point matrix dimension
     0.250  Time step [seconds]
   900.000  Analysis time [seconds]
   900.000  Usable output time [seconds]
   177.700  Hub height [m]
   353.400  Grid height [m]
  1785.600  Grid width [m]
     0.000  Vertical flow angle [degrees]
     0.000  Horizontal flow angle [degrees]


Meteorological Boundary Conditions:

    IECKAI  IEC Kaimal spectral model
         1  IEC standard: IEC 61400-1 Ed. 3: 2005
     3.000  Percent turbulence intensity, IEC 61400-1 Ed. 3: 2005
       NTM  IEC Normal Turbulence Model
       N/A  IEC Extreme Turbulence Model (ETM) "c" parameter [m/s]
       USR  Wind profile type
    90.000  Reference height [m]
       N/A  Reference wind speed [m/s]
       N/A  Jet height [m]
       N/A  Power law exponent
     0.030  Surface roughness length [m]


Non-IEC Meteorological Boundary Conditions:

       N/A  Site latitude [degrees]
       N/A  Gradient Richardson number
       N/A  Friction or shear velocity [m/s]
       N/A  Mixing layer depth [m]
       N/A  Mean hub u'w' Reynolds stress
       N/A  Mean hub u'v' Reynolds stress
       N/A  Mean hub v'w' Reynolds stress


Spatial Coherence Models:

       IEC  u-component coherence model
       IEC  v-component coherence model
       IEC  w-component coherence model
(   12.000, 0.353E-03)  u-component coherence parameters
(   12.000, 0.353E-03)  v-component coherence parameters
(   12.000, 0.353E-03)  w-component coherence parameters
       N/A  Coherence exponent


User-Defined Profiles:

  Height   Wind Speed   Horizontal Angle
   (m)        (m/s)          (deg)      
  ------   ----------   ----------------
  353.40      10.00         318.19
  334.80      10.00         321.14
  316.20      10.00         324.10
  297.60      10.00         327.05
  279.00      10.00         330.00
  260.40      10.00         332.95
  241.80      10.00         335.90
  223.20      10.00         338.86
  204.60      10.00         341.81
  186.00      10.00         344.76
  167.40      10.00         347.71
  148.80      10.00         350.67
  130.20      10.00         353.62
  111.60      10.00         356.57
   93.00      10.00         359.52
   74.40      10.00           2.48
   55.80      10.00           5.43
   37.20      10.00           8.38
   18.60      10.00          11.33
    0.00      10.00          14.29


You have requested that the following file(s) be generated:

   /kfs3/scratch/agupta/Projects/RL_Incubator/FinalRuns_Veer/Seed4/./FFSim_Seed4/Cond00_v10.0_PL0.12_TI3.0/Seed_8/Low.bts (AeroDyn/TurbSim full-field wind file)


Turbulence Simulation Scaling Parameter Summary:

   Turbulence model used                            =  IEC Kaimal
   Turbulence characteristic                        =  User-specified
   IEC standard                                     =  IEC 61400-1 Ed. 3: 2005
   Mean wind speed at hub height                    =   10.000 m/s
   Characteristic value of standard deviation       =    0.300 m/s
   Turbulence scale                                 =   42.000 m
   u-component integral scale                       =  340.200 m
   Coherency scale                                  =  340.200 m
   Characteristic value of hub turbulence intensity =    3.000%
   Gradient Richardson number                       =    0.000

   Wind profile type                                =  Linear interpolation of user-defined profile
   Equivalent power law exponent (upper rotor disk) =    0.000
   Mean shear across rotor disk                     =    0.000 (m/s)/m
   Assumed rotor diameter                           =  353.400 m
   Surface roughness length                         =    0.030 m

   Nyquist frequency of turbulent wind field        =    2.000 Hz

   Number of time steps in the FFT                  =     3600
   Number of time steps output                      =     3600
   Number of points simulated                       =     7527


Mean Flow Angles:

   Vertical   =   0.0 degrees
   Horizontal =   0.0 degrees

Mean Wind Speed Profile:

   Height    Wind Speed   Horizontal Angle  Vertical Angle  U-comp (X)   V-comp (Y)   W-comp (Z)
     (m)        (m/s)         (degrees)       (degrees)       (m/s)        (m/s)        (m/s)   
   ------    ----------   ----------------  --------------  ----------   ----------   ----------
    354.4       10.00          318.19            0.00          7.45        -6.67         0.00
    345.1       10.00          319.51            0.00          7.60        -6.49         0.00
    335.8       10.00          320.98            0.00          7.77        -6.30         0.00
    326.5       10.00          322.46            0.00          7.93        -6.09         0.00
    317.2       10.00          323.94            0.00          8.08        -5.89         0.00
    307.9       10.00          325.41            0.00          8.23        -5.68         0.00
    298.6       10.00          326.89            0.00          8.38        -5.46         0.00
    289.3       10.00          328.37            0.00          8.51        -5.25         0.00
    280.0       10.00          329.84            0.00          8.65        -5.02         0.00
    270.7       10.00          331.32            0.00          8.77        -4.80         0.00
    261.4       10.00          332.79            0.00          8.89        -4.57         0.00
    252.1       10.00          334.27            0.00          9.01        -4.34         0.00
    242.8       10.00          335.75            0.00          9.12        -4.11         0.00
    233.5       10.00          337.22            0.00          9.22        -3.87         0.00
    224.2       10.00          338.70            0.00          9.32        -3.63         0.00
    214.9       10.00          340.17            0.00          9.41        -3.39         0.00
    205.6       10.00          341.65            0.00          9.49        -3.15         0.00
    196.3       10.00          343.13            0.00          9.57        -2.90         0.00
    187.0       10.00          344.60            0.00          9.64        -2.66         0.00
    177.7       10.00          346.08            0.00          9.71        -2.41         0.00
    168.4       10.00          347.56            0.00          9.77        -2.15         0.00
    159.1       10.00          349.03            0.00          9.82        -1.90         0.00
    149.8       10.00          350.51            0.00          9.86        -1.65         0.00
    140.5       10.00          351.98            0.00          9.90        -1.39         0.00
    131.2       10.00          353.46            0.00          9.93        -1.14         0.00
    121.9       10.00          354.94            0.00          9.96        -0.88         0.00
    112.6       10.00          356.41            0.00          9.98        -0.63         0.00
    103.3       10.00          357.89            0.00          9.99        -0.37         0.00
     94.0       10.00          359.37            0.00         10.00        -0.11         0.00
     84.7       10.00          360.84            0.00         10.00         0.15         0.00
     75.4       10.00          362.32            0.00          9.99         0.40         0.00
     66.1       10.00            3.79            0.00          9.98         0.66         0.00
     56.8       10.00            5.27            0.00          9.96         0.92         0.00
     47.5       10.00            6.75            0.00          9.93         1.17         0.00
     38.2       10.00            8.22            0.00          9.90         1.43         0.00
     28.9       10.00            9.70            0.00          9.86         1.68         0.00
     19.6       10.00           11.17            0.00          9.81         1.94         0.00
     10.3       10.00           12.65            0.00          9.76         2.19         0.00
      1.0       10.00           14.13            0.00          9.70         2.44         0.00


Harvested Random Seeds after Generation of the Random Numbers:

    377667225 K 1
            0 K 2


Hub-Height Simulated Turbulence Statistical Summary:

   Type of Wind        Min (m/s)   Mean (m/s)    Max (m/s)  Sigma (m/s)       TI (%)
   ----------------    ---------   ----------    ---------  -----------       ------
   Longitudinal (u)         9.24        10.00        11.00        0.272        2.717
   Lateral (v)             -0.81         0.00         0.93        0.254        2.540
   Vertical (w)            -0.52        -0.00         0.52        0.143        1.429
   U component              8.90         9.71        10.74        0.257        2.650
   V component             -3.25        -2.41        -1.61        0.269        2.768
   W component             -0.52        -0.00         0.52        0.143        1.472
   Horizontal (U&V)         9.24        10.00        11.00        0.272        2.722
   Total                    9.24        10.00        11.00        0.272        2.721

                       Min Reynolds     Mean Reynolds    Max Reynolds    Correlation
   Product             Stress (m/s)^2   Stress (m/s)^2   Stress (m/s)^2  Coefficient
   ----------------    --------------   --------------   --------------  -----------
   u'w'                     -0.201             0.000             0.248         0.007
   u'v'                     -0.401            -0.015             0.448        -0.220
   v'w'                     -0.206            -0.000             0.256        -0.005


   Friction Velocity (Ustar)  =      0.017 m/s
   Maximum Instantaneous TKE  =      0.555 (m/s)^2
   Maximum Instantaneous CTKE =      0.231 (m/s)^2


Grid Point Variance Summary:

   Y-coord -892.80 -883.50 -874.20 -864.90 -855.60 -846.30 -837.00 -827.70 -818.40 -809.10 -799.80 -790.50 -781.20 -771.90 -762.60 -753.30 -744.00 -734.70 -725.40 -716.10 -706.80 -697.50 -688.20 -678.90 -669.60 -660.30 -651.00 -641.70 -632.40 -623.10 -613.80 -604.50 -595.20 -585.90 -576.60 -567.30 -558.00 -548.70 -539.40 -530.10 -520.80 -511.50 -502.20 -492.90 -483.60 -474.30 -465.00 -455.70 -446.40 -437.10 -427.80 -418.50 -409.20 -399.90 -390.60 -381.30 -372.00 -362.70 -353.40 -344.10 -334.80 -325.50 -316.20 -306.90 -297.60 -288.30 -279.00 -269.70 -260.40 -251.10 -241.80 -232.50 -223.20 -213.90 -204.60 -195.30 -186.00 -176.70 -167.40 -158.10 -148.80 -139.50 -130.20 -120.90 -111.60 -102.30  -93.00  -83.70  -74.40  -65.10  -55.80  -46.50  -37.20  -27.90  -18.60   -9.30    0.00    9.30   18.60   27.90   37.20   46.50   55.80   65.10   74.40   83.70   93.00  102.30  111.60  120.90  130.20  139.50  148.80  158.10  167.40  176.70  186.00  195.30  204.60  213.90  223.20  232.50  241.80  251.10  260.40  269.70  279.00  288.30  297.60  306.90  316.20  325.50  334.80  344.10  353.40  362.70  372.00  381.30  390.60  399.90  409.20  418.50  427.80  437.10  446.40  455.70  465.00  474.30  483.60  492.90  502.20  511.50  520.80  530.10  539.40  548.70  558.00  567.30  576.60  585.90  595.20  604.50  613.80  623.10  632.40  641.70  651.00  660.30  669.60  678.90  688.20  697.50  706.80  716.10  725.40  734.70  744.00  753.30  762.60  771.90  781.20  790.50  799.80  809.10  818.40  827.70  837.00  846.30  855.60  864.90  874.20  883.50  892.80

   Height   Standard deviation at grid points for the u component:
   354.40    0.243   0.241   0.245   0.229   0.235   0.249   0.255   0.257   0.244   0.243   0.240   0.249   0.256   0.270   0.280   0.255   0.232   0.265   0.269   0.263   0.296   0.308   0.323   0.316   0.306   0.301   0.298   0.294   0.277   0.274   0.279   0.308   0.322   0.327   0.337   0.326   0.308   0.292   0.280   0.270   0.284   0.291   0.303   0.296   0.270   0.277   0.282   0.282   0.280   0.272   0.295   0.303   0.294   0.297   0.292   0.265   0.258   0.245   0.249   0.254   0.258   0.254   0.256   0.244   0.253   0.255   0.256   0.257   0.266   0.269   0.258   0.243   0.248   0.271   0.261   0.252   0.237   0.227   0.243   0.243   0.238   0.238   0.228   0.224   0.225   0.239   0.242   0.248   0.257   0.235   0.248   0.255   0.267   0.290   0.303   0.317   0.322   0.319   0.324   0.328   0.349   0.318   0.314   0.300   0.292   0.277   0.275   0.289   0.273   0.251   0.244   0.253   0.237   0.221   0.239   0.223   0.232   0.263   0.264   0.271   0.265   0.270   0.266   0.254   0.252   0.274   0.291   0.275   0.284   0.254   0.269   0.268   0.275   0.252   0.269   0.263   0.255   0.263   0.257   0.282   0.286   0.284   0.279   0.247   0.241   0.273   0.271   0.282   0.266   0.275   0.267   0.268   0.276   0.252   0.259   0.277   0.272   0.269   0.280   0.279   0.301   0.288   0.268   0.265   0.270   0.281   0.269   0.258   0.252   0.257   0.264   0.288   0.283   0.299   0.305   0.310   0.304   0.318   0.314   0.314   0.291   0.282   0.298   0.295   0.319   0.329   0.316   0.320   0.324   0.316   0.315   0.306   0.290
   345.10    0.257   0.246   0.240   0.222   0.240   0.234   0.254   0.252   0.241   0.233   0.238   0.270   0.267   0.282   0.260   0.243   0.258   0.284   0.271   0.295   0.314   0.328   0.324   0.296   0.290   0.294   0.309   0.291   0.270   0.269   0.282   0.304   0.337   0.311   0.315   0.312   0.299   0.281   0.300   0.283   0.291   0.278   0.289   0.280   0.277   0.284   0.291   0.289   0.269   0.291   0.305   0.328   0.331   0.305   0.277   0.273   0.243   0.244   0.244   0.238   0.248   0.232   0.244   0.241   0.242   0.253   0.262   0.278   0.284   0.296   0.271   0.263   0.266   0.268   0.258   0.240   0.249   0.248   0.262   0.259   0.249   0.254   0.236   0.225   0.236   0.222   0.237   0.248   0.237   0.232   0.245   0.267   0.267   0.268   0.307   0.313   0.310   0.305   0.315   0.317   0.329   0.326   0.308   0.298   0.296   0.299   0.286   0.263   0.253   0.254   0.255   0.246   0.223   0.223   0.231   0.230   0.222   0.236   0.250   0.245   0.257   0.259   0.273   0.277   0.285   0.285   0.302   0.299   0.294   0.281   0.270   0.262   0.261   0.296   0.278   0.290   0.298   0.281   0.270   0.264   0.283   0.283   0.287   0.261   0.268   0.274   0.268   0.262   0.247   0.249   0.255   0.226   0.250   0.250   0.246   0.262   0.272   0.262   0.257   0.265   0.283   0.276   0.268   0.252   0.269   0.277   0.272   0.257   0.264   0.261   0.270   0.272   0.280   0.285   0.298   0.297   0.306   0.323   0.309   0.321   0.295   0.282   0.276   0.293   0.310   0.314   0.303   0.311   0.312   0.291   0.302   0.276   0.279
   335.80    0.255   0.246   0.228   0.239   0.227   0.245   0.235   0.246   0.234   0.235   0.251   0.261   0.254   0.262   0.274   0.270   0.275   0.275   0.278   0.285   0.295   0.324   0.315   0.294   0.308   0.287   0.291   0.265   0.260   0.264   0.268   0.283   0.319   0.306   0.303   0.298   0.295   0.281   0.305   0.280   0.276   0.268   0.287   0.296   0.273   0.282   0.285   0.282   0.282   0.290   0.295   0.328   0.322   0.299   0.274   0.247   0.257   0.247   0.261   0.253   0.240   0.237   0.249   0.267   0.264   0.264   0.272   0.281   0.278   0.287   0.298   0.255   0.262   0.269   0.271   0.262   0.258   0.256   0.278   0.266   0.252   0.239   0.232   0.244   0.241   0.232   0.232   0.231   0.228   0.244   0.260   0.252   0.280   0.285   0.300   0.299   0.304   0.304   0.326   0.320   0.325   0.321   0.292   0.291   0.299   0.283   0.276   0.266   0.230   0.229   0.236   0.234   0.233   0.231   0.232   0.241   0.237   0.236   0.235   0.261   0.261   0.244   0.263   0.262   0.285   0.278   0.277   0.282   0.279   0.276   0.277   0.273   0.271   0.310   0.316   0.305   0.285   0.278   0.280   0.276   0.279   0.281   0.287   0.285   0.279   0.261   0.254   0.243   0.253   0.240   0.233   0.220   0.228   0.238   0.245   0.256   0.267   0.255   0.242   0.249   0.262   0.264   0.273   0.255   0.275   0.281   0.278   0.272   0.256   0.252   0.274   0.271   0.279   0.279   0.269   0.293   0.302   0.314   0.292   0.292   0.287   0.276   0.251   0.263   0.288   0.299   0.302   0.295   0.296   0.282   0.292   0.272   0.251
   326.50    0.260   0.246   0.225   0.210   0.227   0.222   0.217   0.235   0.236   0.253   0.268   0.276   0.274   0.271   0.276   0.268   0.268   0.293   0.292   0.292   0.291   0.309   0.320   0.301   0.302   0.300   0.291   0.283   0.289   0.262   0.251   0.278   0.292   0.300   0.298   0.279   0.289   0.273   0.284   0.280   0.264   0.278   0.280   0.298   0.286   0.275   0.266   0.276   0.280   0.284   0.288   0.311   0.302   0.268   0.250   0.243   0.249   0.258   0.261   0.271   0.276   0.266   0.259   0.266   0.274   0.273   0.272   0.289   0.291   0.283   0.290   0.286   0.258   0.267   0.270   0.275   0.263   0.263   0.271   0.273   0.227   0.217   0.215   0.238   0.227   0.237   0.218   0.234   0.241   0.248   0.263   0.271   0.271   0.283   0.285   0.287   0.291   0.298   0.315   0.332   0.320   0.319   0.294   0.291   0.304   0.307   0.279   0.284   0.253   0.236   0.228   0.238   0.236   0.232   0.228   0.225   0.229   0.233   0.243   0.275   0.277   0.271   0.276   0.260   0.273   0.283   0.287   0.290   0.292   0.286   0.287   0.277   0.292   0.312   0.323   0.297   0.296   0.293   0.278   0.275   0.301   0.302   0.279   0.274   0.252   0.238   0.242   0.249   0.235   0.241   0.246   0.233   0.242   0.253   0.243   0.253   0.269   0.256   0.251   0.266   0.249   0.243   0.279   0.262   0.272   0.286   0.290   0.267   0.273   0.257   0.259   0.266   0.285   0.279   0.303   0.315   0.308   0.299   0.292   0.276   0.286   0.288   0.290   0.288   0.289   0.287   0.300   0.294   0.298   0.267   0.248   0.242   0.244
   317.20    0.255   0.263   0.246   0.228   0.221   0.247   0.246   0.252   0.264   0.302   0.286   0.299   0.281   0.287   0.283   0.282   0.268   0.290   0.283   0.301   0.289   0.306   0.311   0.298   0.295   0.282   0.281   0.277   0.281   0.283   0.273   0.266   0.286   0.280   0.273   0.284   0.261   0.280   0.278   0.279   0.263   0.259   0.282   0.299   0.290   0.280   0.265   0.273   0.260   0.262   0.295   0.307   0.289   0.247   0.248   0.246   0.254   0.260   0.274   0.298   0.283   0.263   0.263   0.252   0.271   0.266   0.266   0.270   0.289   0.289   0.298   0.280   0.283   0.267   0.259   0.261   0.271   0.288   0.268   0.260   0.241   0.228   0.228   0.229   0.215   0.217   0.225   0.249   0.240   0.243   0.252   0.275   0.268   0.291   0.276   0.274   0.278   0.303   0.322   0.295   0.298   0.323   0.298   0.302   0.320   0.296   0.294   0.276   0.289   0.267   0.248   0.238   0.242   0.239   0.226   0.228   0.249   0.245   0.243   0.260   0.260   0.275   0.273   0.267   0.274   0.294   0.306   0.300   0.311   0.298   0.317   0.317   0.310   0.312   0.318   0.320   0.308   0.296   0.279   0.285   0.295   0.288   0.274   0.248   0.252   0.245   0.259   0.254   0.233   0.260   0.263   0.275   0.256   0.239   0.242   0.246   0.260   0.267   0.279   0.275   0.275   0.294   0.299   0.288   0.271   0.277   0.266   0.268   0.269   0.261   0.265   0.280   0.301   0.294   0.298   0.302   0.283   0.310   0.282   0.272   0.285   0.284   0.280   0.298   0.299   0.291   0.284   0.296   0.283   0.269   0.246   0.235   0.249
   307.90    0.262   0.263   0.252   0.250   0.232   0.240   0.250   0.255   0.275   0.303   0.284   0.290   0.281   0.275   0.293   0.290   0.290   0.287   0.299   0.300   0.302   0.296   0.304   0.291   0.271   0.274   0.274   0.271   0.287   0.304   0.281   0.261   0.284   0.288   0.281   0.266   0.277   0.299   0.283   0.271   0.265   0.269   0.258   0.268   0.289   0.261   0.267   0.255   0.261   0.260   0.260   0.251   0.288   0.250   0.248   0.238   0.250   0.270   0.280   0.272   0.285   0.267   0.258   0.254   0.271   0.276   0.277   0.257   0.273   0.286   0.289   0.299   0.292   0.274   0.262   0.253   0.269   0.251   0.258   0.240   0.233   0.224   0.225   0.218   0.216   0.220   0.250   0.254   0.251   0.252   0.254   0.263   0.269   0.266   0.263   0.277   0.276   0.299   0.304   0.306   0.324   0.300   0.300   0.295   0.304   0.286   0.280   0.278   0.282   0.284   0.254   0.249   0.243   0.230   0.231   0.230   0.256   0.245   0.242   0.260   0.269   0.281   0.302   0.297   0.298   0.285   0.294   0.314   0.320   0.316   0.335   0.337   0.339   0.327   0.297   0.309   0.309   0.302   0.262   0.296   0.312   0.284   0.289   0.268   0.264   0.273   0.259   0.260   0.263   0.278   0.273   0.269   0.268   0.250   0.245   0.266   0.277   0.274   0.275   0.276   0.272   0.298   0.294   0.298   0.276   0.256   0.263   0.269   0.274   0.272   0.281   0.282   0.297   0.303   0.300   0.298   0.290   0.311   0.292   0.295   0.276   0.266   0.296   0.295   0.281   0.273   0.276   0.268   0.260   0.259   0.231   0.248   0.257
   298.60    0.256   0.259   0.256   0.248   0.236   0.240   0.248   0.251   0.272   0.275   0.298   0.299   0.282   0.280   0.278   0.271   0.268   0.273   0.283   0.286   0.296   0.278   0.274   0.282   0.254   0.281   0.279   0.280   0.280   0.294   0.272   0.268   0.266   0.286   0.279   0.256   0.286   0.275   0.286   0.279   0.270   0.271   0.267   0.262   0.257   0.258   0.253   0.263   0.247   0.272   0.268   0.285   0.279   0.249   0.257   0.245   0.254   0.260   0.259   0.271   0.274   0.255   0.260   0.262   0.286   0.294   0.275   0.282   0.271   0.271   0.284   0.292   0.286   0.287   0.264   0.259   0.240   0.243   0.250   0.235   0.238   0.214   0.226   0.213   0.207   0.233   0.257   0.256   0.259   0.260   0.267   0.260   0.253   0.250   0.259   0.286   0.288   0.300   0.298   0.315   0.305   0.314   0.301   0.288   0.297   0.308   0.315   0.292   0.277   0.260   0.249   0.264   0.260   0.264   0.250   0.241   0.263   0.252   0.257   0.267   0.275   0.275   0.299   0.295   0.286   0.266   0.299   0.303   0.311   0.310   0.324   0.338   0.324   0.324   0.307   0.295   0.292   0.293   0.284   0.312   0.324   0.304   0.301   0.293   0.278   0.271   0.264   0.281   0.275   0.266   0.291   0.302   0.274   0.248   0.257   0.271   0.269   0.283   0.281   0.289   0.291   0.293   0.298   0.276   0.278   0.251   0.236   0.254   0.256   0.280   0.275   0.281   0.280   0.275   0.289   0.300   0.298   0.290   0.301   0.294   0.284   0.264   0.294   0.289   0.297   0.274   0.260   0.249   0.240   0.240   0.239   0.257   0.261
   289.30    0.286   0.279   0.270   0.264   0.256   0.248   0.249   0.255   0.261   0.271   0.278   0.284   0.267   0.249   0.245   0.262   0.265   0.275   0.255   0.284   0.279   0.262   0.270   0.278   0.271   0.280   0.285   0.273   0.271   0.270   0.272   0.268   0.287   0.289   0.291   0.269   0.291   0.289   0.291   0.297   0.304   0.282   0.262   0.249   0.247   0.253   0.257   0.259   0.255   0.262   0.270   0.269   0.276   0.264   0.255   0.253   0.254   0.256   0.256   0.257   0.259   0.262   0.285   0.282   0.273   0.284   0.289   0.280   0.271   0.271   0.259   0.283   0.264   0.255   0.266   0.255   0.249   0.245   0.256   0.236   0.228   0.225   0.231   0.220   0.215   0.242   0.270   0.262   0.269   0.269   0.258   0.256   0.253   0.237   0.242   0.275   0.301   0.297   0.300   0.297   0.299   0.327   0.315   0.319   0.304   0.332   0.323   0.305   0.281   0.282   0.265   0.248   0.262   0.262   0.250   0.243   0.250   0.266   0.273   0.251   0.272   0.276   0.286   0.305   0.286   0.283   0.306   0.298   0.315   0.326   0.316   0.342   0.309   0.315   0.311   0.313   0.296   0.303   0.303   0.308   0.294   0.286   0.296   0.268   0.263   0.264   0.285   0.251   0.281   0.265   0.279   0.292   0.282   0.280   0.258   0.275   0.262   0.290   0.282   0.292   0.282   0.288   0.288   0.265   0.270   0.263   0.244   0.231   0.252   0.261   0.261   0.282   0.273   0.273   0.284   0.286   0.271   0.284   0.294   0.278   0.290   0.268   0.283   0.288   0.288   0.284   0.283   0.268   0.253   0.238   0.245   0.239   0.258
   280.00    0.281   0.281   0.265   0.276   0.260   0.269   0.274   0.263   0.250   0.268   0.275   0.284   0.274   0.271   0.275   0.259   0.269   0.287   0.280   0.286   0.267   0.254   0.253   0.249   0.275   0.266   0.269   0.284   0.282   0.271   0.256   0.287   0.290   0.292   0.283   0.287   0.285   0.300   0.300   0.299   0.284   0.265   0.253   0.235   0.242   0.250   0.261   0.252   0.259   0.262   0.282   0.277   0.254   0.247   0.247   0.245   0.241   0.233   0.250   0.253   0.259   0.255   0.270   0.293   0.292   0.291   0.299   0.288   0.261   0.257   0.253   0.277   0.268   0.260   0.244   0.250   0.250   0.241   0.244   0.235   0.237   0.228   0.209   0.224   0.231   0.235   0.254   0.265   0.249   0.257   0.251   0.262   0.265   0.257   0.272   0.275   0.288   0.288   0.303   0.301   0.302   0.318   0.311   0.286   0.295   0.326   0.339   0.316   0.285   0.273   0.270   0.275   0.266   0.275   0.273   0.284   0.272   0.298   0.285   0.284   0.275   0.266   0.283   0.269   0.283   0.312   0.331   0.333   0.311   0.319   0.334   0.343   0.325   0.304   0.318   0.321   0.299   0.294   0.299   0.302   0.261   0.274   0.279   0.260   0.257   0.269   0.270   0.259   0.261   0.264   0.282   0.312   0.318   0.298   0.283   0.272   0.268   0.277   0.300   0.303   0.286   0.283   0.289   0.262   0.257   0.261   0.249   0.250   0.241   0.263   0.268   0.267   0.262   0.258   0.257   0.252   0.268   0.270   0.268   0.273   0.273   0.274   0.284   0.271   0.281   0.276   0.290   0.286   0.277   0.274   0.241   0.265   0.253
   270.70    0.267   0.287   0.295   0.304   0.286   0.295   0.296   0.292   0.276   0.276   0.278   0.274   0.292   0.292   0.277   0.259   0.286   0.297   0.270   0.272   0.262   0.240   0.235   0.245   0.270   0.266   0.251   0.271   0.287   0.257   0.274   0.287   0.301   0.306   0.293   0.282   0.288   0.300   0.312   0.276   0.273   0.256   0.250   0.245   0.233   0.245   0.263   0.268   0.263   0.265   0.279   0.261   0.258   0.254   0.258   0.250   0.254   0.255   0.251   0.230   0.240   0.243   0.258   0.273   0.284   0.274   0.286   0.275   0.270   0.265   0.261   0.282   0.271   0.265   0.245   0.254   0.250   0.262   0.269   0.258   0.242   0.242   0.244   0.235   0.218   0.240   0.251   0.249   0.246   0.262   0.270   0.245   0.264   0.259   0.248   0.274   0.277   0.297   0.302   0.325   0.315   0.299   0.299   0.292   0.303   0.306   0.332   0.316   0.286   0.286   0.294   0.273   0.276   0.281   0.263   0.291   0.312   0.302   0.302   0.273   0.268   0.274   0.262   0.255   0.267   0.298   0.320   0.335   0.325   0.315   0.321   0.338   0.323   0.296   0.301   0.305   0.304   0.302   0.292   0.281   0.270   0.263   0.274   0.268   0.257   0.251   0.257   0.264   0.249   0.257   0.291   0.302   0.309   0.279   0.288   0.264   0.277   0.282   0.297   0.292   0.266   0.263   0.256   0.242   0.252   0.259   0.244   0.254   0.267   0.266   0.264   0.249   0.269   0.252   0.248   0.255   0.253   0.255   0.245   0.261   0.273   0.249   0.276   0.267   0.298   0.287   0.293   0.272   0.275   0.246   0.257   0.259   0.250
   261.40    0.260   0.282   0.302   0.277   0.283   0.293   0.285   0.282   0.283   0.276   0.285   0.286   0.305   0.286   0.290   0.281   0.291   0.296   0.270   0.269   0.248   0.252   0.252   0.250   0.264   0.256   0.252   0.269   0.266   0.271   0.261   0.273   0.283   0.274   0.282   0.271   0.275   0.281   0.295   0.254   0.250   0.259   0.248   0.265   0.239   0.245   0.261   0.267   0.277   0.251   0.247   0.253   0.257   0.255   0.258   0.243   0.244   0.245   0.242   0.243   0.250   0.252   0.248   0.258   0.279   0.280   0.261   0.270   0.266   0.279   0.276   0.271   0.277   0.274   0.255   0.244   0.247   0.265   0.272   0.260   0.260   0.251   0.256   0.248   0.251   0.261   0.255   0.243   0.262   0.270   0.257   0.264   0.251   0.240   0.244   0.254   0.274   0.294   0.293   0.290   0.302   0.271   0.282   0.287   0.293   0.295   0.299   0.288   0.291   0.276   0.289   0.270   0.281   0.306   0.285   0.277   0.308   0.316   0.311   0.291   0.290   0.259   0.273   0.257   0.274   0.288   0.280   0.322   0.315   0.314   0.326   0.325   0.313   0.293   0.286   0.289   0.295   0.297   0.289   0.284   0.264   0.268   0.276   0.267   0.258   0.250   0.264   0.252   0.272   0.256   0.269   0.282   0.285   0.271   0.257   0.282   0.276   0.283   0.271   0.279   0.254   0.240   0.235   0.242   0.254   0.259   0.269   0.266   0.283   0.263   0.257   0.242   0.250   0.235   0.242   0.252   0.242   0.260   0.238   0.245   0.260   0.267   0.271   0.259   0.279   0.278   0.273   0.259   0.278   0.249   0.255   0.231   0.235
   252.10    0.271   0.297   0.278   0.263   0.290   0.300   0.293   0.278   0.272   0.306   0.308   0.298   0.313   0.312   0.287   0.286   0.274   0.278   0.270   0.266   0.274   0.273   0.249   0.265   0.253   0.256   0.264   0.274   0.282   0.258   0.263   0.284   0.293   0.273   0.264   0.272   0.266   0.269   0.279   0.260   0.256   0.260   0.261   0.260   0.241   0.259   0.256   0.278   0.282   0.246   0.223   0.234   0.249   0.261   0.258   0.244   0.248   0.260   0.251   0.252   0.266   0.268   0.253   0.259   0.261   0.273   0.273   0.272   0.268   0.278   0.283   0.269   0.252   0.259   0.263   0.254   0.256   0.260   0.262   0.264   0.252   0.246   0.236   0.234   0.262   0.276   0.274   0.278   0.279   0.268   0.259   0.268   0.264   0.261   0.260   0.244   0.267   0.291   0.292   0.283   0.283   0.276   0.262   0.276   0.291   0.297   0.304   0.299   0.294   0.277   0.304   0.292   0.287   0.302   0.301   0.295   0.316   0.344   0.339   0.299   0.300   0.284   0.295   0.273   0.281   0.301   0.297   0.312   0.305   0.315   0.309   0.319   0.329   0.290   0.287   0.278   0.284   0.282   0.291   0.270   0.283   0.254   0.275   0.288   0.263   0.249   0.255   0.253   0.242   0.246   0.262   0.260   0.267   0.267   0.274   0.270   0.283   0.264   0.274   0.258   0.233   0.233   0.236   0.249   0.255   0.256   0.277   0.283   0.263   0.267   0.241   0.262   0.253   0.220   0.250   0.257   0.258   0.281   0.259   0.264   0.262   0.254   0.265   0.266   0.271   0.266   0.265   0.258   0.267   0.266   0.263   0.243   0.236
   242.80    0.289   0.297   0.295   0.291   0.289   0.301   0.282   0.287   0.283   0.300   0.303   0.300   0.297   0.295   0.282   0.275   0.276   0.261   0.263   0.255   0.262   0.258   0.264   0.280   0.259   0.244   0.263   0.265   0.278   0.267   0.279   0.275   0.287   0.257   0.277   0.270   0.263   0.289   0.271   0.274   0.255   0.256   0.258   0.254   0.244   0.240   0.249   0.279   0.270   0.257   0.236   0.231   0.246   0.264   0.264   0.248   0.246   0.255   0.261   0.256   0.277   0.283   0.261   0.277   0.279   0.286   0.297   0.284   0.292   0.274   0.300   0.265   0.269   0.260   0.275   0.272   0.271   0.255   0.267   0.261   0.253   0.229   0.249   0.262   0.264   0.282   0.279   0.292   0.290   0.272   0.266   0.274   0.259   0.267   0.255   0.276   0.271   0.277   0.277   0.280   0.297   0.283   0.286   0.265   0.282   0.293   0.287   0.288   0.305   0.309   0.300   0.298   0.303   0.304   0.289   0.290   0.310   0.339   0.324   0.319   0.307   0.302   0.307   0.318   0.307   0.302   0.284   0.304   0.290   0.314   0.306   0.296   0.306   0.283   0.283   0.279   0.283   0.288   0.279   0.278   0.275   0.269   0.270   0.276   0.276   0.267   0.255   0.251   0.262   0.253   0.264   0.242   0.255   0.255   0.260   0.255   0.258   0.266   0.260   0.256   0.247   0.242   0.246   0.259   0.240   0.249   0.269   0.270   0.250   0.263   0.264   0.277   0.268   0.251   0.264   0.277   0.290   0.279   0.288   0.270   0.265   0.271   0.271   0.262   0.253   0.263   0.253   0.252   0.268   0.261   0.276   0.245   0.246
   233.50    0.286   0.287   0.279   0.285   0.271   0.286   0.286   0.277   0.285   0.307   0.290   0.283   0.295   0.305   0.289   0.302   0.262   0.242   0.246   0.244   0.247   0.267   0.274   0.280   0.278   0.260   0.254   0.271   0.283   0.289   0.277   0.281   0.279   0.277   0.263   0.255   0.259   0.278   0.272   0.276   0.259   0.254   0.241   0.249   0.241   0.247   0.266   0.253   0.277   0.243   0.242   0.243   0.248   0.248   0.247   0.248   0.250   0.255   0.278   0.282   0.276   0.267   0.269   0.285   0.299   0.301   0.303   0.285   0.278   0.279   0.277   0.276   0.282   0.272   0.279   0.252   0.266   0.261   0.281   0.275   0.258   0.269   0.271   0.278   0.281   0.276   0.283   0.293   0.286   0.263   0.280   0.276   0.277   0.269   0.268   0.275   0.268   0.250   0.260   0.269   0.261   0.262   0.267   0.258   0.273   0.287   0.281   0.283   0.286   0.301   0.306   0.288   0.299   0.293   0.299   0.289   0.309   0.328   0.314   0.322   0.305   0.314   0.310   0.322   0.315   0.299   0.279   0.302   0.287   0.310   0.318   0.305   0.295   0.283   0.285   0.281   0.279   0.281   0.269   0.275   0.272   0.259   0.257   0.271   0.262   0.268   0.255   0.257   0.254   0.248   0.236   0.244   0.252   0.255   0.268   0.239   0.245   0.238   0.257   0.263   0.243   0.242   0.248   0.245   0.249   0.255   0.271   0.280   0.244   0.248   0.259   0.271   0.263   0.265   0.262   0.264   0.268   0.269   0.286   0.262   0.259   0.247   0.272   0.278   0.256   0.246   0.242   0.247   0.262   0.254   0.250   0.247   0.256
   224.20    0.296   0.285   0.292   0.266   0.282   0.270   0.271   0.294   0.317   0.303   0.319   0.294   0.296   0.301   0.300   0.292   0.263   0.254   0.239   0.259   0.259   0.258   0.267   0.264   0.279   0.262   0.250   0.249   0.262   0.274   0.292   0.294   0.298   0.288   0.270   0.256   0.262   0.278   0.276   0.237   0.268   0.261   0.268   0.248   0.247   0.254   0.267   0.287   0.289   0.265   0.250   0.257   0.253   0.248   0.258   0.260   0.259   0.258   0.262   0.287   0.280   0.281   0.304   0.322   0.291   0.298   0.295   0.288   0.277   0.280   0.287   0.272   0.299   0.280   0.281   0.272   0.271   0.264   0.267   0.271   0.256   0.267   0.283   0.300   0.306   0.294   0.282   0.273   0.263   0.276   0.293   0.292   0.291   0.278   0.262   0.269   0.258   0.248   0.255   0.255   0.258   0.262   0.262   0.273   0.288   0.299   0.293   0.267   0.283   0.295   0.300   0.297   0.281   0.297   0.307   0.308   0.325   0.338   0.317   0.315   0.310   0.314   0.309   0.299   0.290   0.287   0.265   0.283   0.291   0.295   0.302   0.327   0.322   0.304   0.304   0.292   0.280   0.293   0.293   0.261   0.265   0.269   0.248   0.258   0.251   0.255   0.260   0.256   0.251   0.249   0.256   0.267   0.261   0.257   0.269   0.244   0.250   0.247   0.260   0.261   0.231   0.231   0.251   0.253   0.251   0.250   0.270   0.260   0.259   0.257   0.266   0.277   0.269   0.272   0.280   0.271   0.282   0.294   0.288   0.261   0.253   0.262   0.267   0.259   0.258   0.240   0.217   0.235   0.251   0.237   0.254   0.252   0.248
   214.90    0.288   0.275   0.279   0.290   0.267   0.252   0.277   0.282   0.305   0.303   0.314   0.300   0.303   0.299   0.307   0.286   0.291   0.275   0.259   0.266   0.256   0.254   0.261   0.269   0.271   0.285   0.265   0.257   0.275   0.280   0.284   0.298   0.290   0.279   0.277   0.274   0.260   0.278   0.277   0.254   0.274   0.253   0.265   0.267   0.239   0.264   0.289   0.316   0.275   0.282   0.283   0.289   0.266   0.249   0.247   0.256   0.278   0.278   0.295   0.281   0.292   0.303   0.325   0.312   0.285   0.276   0.287   0.272   0.290   0.290   0.297   0.282   0.297   0.285   0.286   0.285   0.287   0.291   0.255   0.254   0.252   0.278   0.276   0.291   0.276   0.263   0.254   0.262   0.240   0.261   0.272   0.288   0.287   0.292   0.285   0.252   0.255   0.262   0.253   0.267   0.260   0.241   0.256   0.260   0.263   0.278   0.286   0.282   0.280   0.282   0.289   0.306   0.283   0.289   0.290   0.289   0.310   0.309   0.333   0.328   0.311   0.315   0.302   0.314   0.297   0.274   0.277   0.288   0.284   0.276   0.325   0.323   0.320   0.324   0.313   0.296   0.277   0.287   0.289   0.271   0.278   0.261   0.254   0.262   0.262   0.265   0.257   0.239   0.252   0.271   0.251   0.276   0.258   0.257   0.264   0.268   0.261   0.247   0.255   0.255   0.233   0.255   0.227   0.259   0.276   0.265   0.266   0.252   0.273   0.274   0.277   0.268   0.271   0.274   0.299   0.294   0.287   0.311   0.298   0.260   0.249   0.258   0.244   0.262   0.265   0.239   0.226   0.232   0.240   0.232   0.243   0.251   0.247
   205.60    0.300   0.275   0.299   0.288   0.280   0.272   0.280   0.283   0.296   0.309   0.300   0.286   0.305   0.309   0.293   0.294   0.277   0.290   0.271   0.261   0.256   0.267   0.264   0.259   0.265   0.278   0.262   0.260   0.270   0.274   0.271   0.281   0.270   0.278   0.293   0.288   0.281   0.282   0.282   0.277   0.269   0.278   0.291   0.282   0.280   0.270   0.291   0.309   0.282   0.292   0.295   0.274   0.258   0.251   0.256   0.266   0.278   0.307   0.307   0.270   0.272   0.291   0.309   0.302   0.299   0.262   0.263   0.278   0.277   0.279   0.278   0.287   0.288   0.287   0.301   0.301   0.313   0.286   0.282   0.280   0.262   0.282   0.268   0.264   0.269   0.251   0.260   0.248   0.239   0.255   0.259   0.267   0.283   0.279   0.264   0.288   0.254   0.273   0.268   0.261   0.261   0.247   0.254   0.272   0.276   0.280   0.287   0.289   0.300   0.275   0.284   0.294   0.280   0.261   0.282   0.300   0.308   0.313   0.330   0.306   0.290   0.292   0.289   0.293   0.282   0.277   0.282   0.289   0.301   0.304   0.319   0.309   0.298   0.313   0.311   0.287   0.278   0.281   0.276   0.291   0.271   0.267   0.255   0.280   0.270   0.274   0.269   0.271   0.263   0.279   0.271   0.269   0.247   0.256   0.265   0.282   0.259   0.257   0.238   0.245   0.240   0.234   0.243   0.265   0.284   0.275   0.264   0.264   0.245   0.272   0.259   0.266   0.266   0.268   0.299   0.317   0.311   0.316   0.289   0.282   0.260   0.262   0.270   0.281   0.279   0.247   0.246   0.243   0.242   0.236   0.241   0.245   0.253
   196.30    0.284   0.279   0.278   0.265   0.284   0.288   0.291   0.289   0.300   0.296   0.282   0.289   0.277   0.296   0.283   0.280   0.279   0.278   0.294   0.260   0.272   0.269   0.276   0.255   0.266   0.263   0.272   0.262   0.296   0.271   0.261   0.274   0.280   0.255   0.282   0.281   0.260   0.268   0.264   0.294   0.262   0.275   0.285   0.303   0.300   0.293   0.312   0.304   0.297   0.289   0.291   0.295   0.273   0.264   0.272   0.290   0.283   0.290   0.305   0.286   0.268   0.287   0.278   0.283   0.284   0.253   0.250   0.251   0.262   0.270   0.257   0.281   0.281   0.284   0.290   0.309   0.317   0.296   0.302   0.270   0.264   0.272   0.262   0.265   0.270   0.258   0.252   0.236   0.256   0.249   0.254   0.257   0.277   0.280   0.284   0.283   0.266   0.284   0.288   0.288   0.282   0.284   0.275   0.296   0.301   0.289   0.293   0.295   0.304   0.275   0.298   0.284   0.284   0.279   0.293   0.301   0.307   0.306   0.298   0.293   0.281   0.279   0.300   0.286   0.289   0.278   0.292   0.277   0.317   0.310   0.291   0.316   0.316   0.327   0.314   0.299   0.286   0.289   0.274   0.284   0.302   0.297   0.284   0.295   0.308   0.290   0.290   0.294   0.289   0.283   0.296   0.288   0.272   0.263   0.270   0.274   0.273   0.260   0.234   0.235   0.227   0.227   0.226   0.252   0.275   0.280   0.263   0.260   0.245   0.249   0.257   0.265   0.273   0.283   0.301   0.318   0.317   0.310   0.283   0.288   0.281   0.285   0.290   0.282   0.279   0.269   0.236   0.252   0.257   0.274   0.278   0.280   0.251
   187.00    0.268   0.259   0.271   0.268   0.278   0.276   0.282   0.278   0.283   0.289   0.284   0.267   0.277   0.274   0.268   0.274   0.281   0.270   0.265   0.259   0.260   0.280   0.271   0.263   0.272   0.273   0.287   0.274   0.289   0.279   0.267   0.264   0.264   0.257   0.253   0.265   0.256   0.257   0.270   0.269   0.262   0.271   0.285   0.310   0.313   0.310   0.309   0.321   0.308   0.289   0.301   0.301   0.287   0.271   0.291   0.293   0.287   0.285   0.292   0.275   0.276   0.289   0.280   0.280   0.269   0.266   0.263   0.256   0.260   0.254   0.279   0.286   0.271   0.285   0.305   0.293   0.314   0.310   0.287   0.280   0.274   0.275   0.263   0.248   0.278   0.264   0.248   0.264   0.261   0.254   0.245   0.257   0.265   0.273   0.294   0.287   0.276   0.287   0.288   0.278   0.291   0.278   0.274   0.275   0.290   0.292   0.292   0.299   0.296   0.281   0.261   0.280   0.267   0.266   0.283   0.283   0.283   0.286   0.292   0.271   0.292   0.311   0.307   0.279   0.292   0.283   0.302   0.303   0.317   0.309   0.321   0.323   0.338   0.313   0.300   0.295   0.281   0.288   0.270   0.280   0.293   0.292   0.283   0.299   0.297   0.308   0.307   0.307   0.299   0.304   0.299   0.296   0.281   0.292   0.282   0.283   0.255   0.259   0.252   0.224   0.233   0.246   0.243   0.250   0.257   0.271   0.264   0.260   0.244   0.246   0.238   0.261   0.250   0.292   0.314   0.301   0.296   0.307   0.290   0.295   0.301   0.281   0.287   0.297   0.302   0.301   0.279   0.277   0.269   0.285   0.274   0.281   0.251
   177.70    0.261   0.263   0.285   0.296   0.291   0.282   0.304   0.298   0.303   0.289   0.275   0.281   0.259   0.279   0.270   0.273   0.274   0.282   0.267   0.267   0.272   0.270   0.272   0.262   0.252   0.268   0.268   0.263   0.270   0.275   0.272   0.270   0.263   0.272   0.249   0.247   0.244   0.254   0.260   0.251   0.264   0.269   0.289   0.309   0.314   0.315   0.309   0.316   0.301   0.290   0.282   0.285   0.286   0.287   0.296   0.299   0.296   0.287   0.298   0.283   0.282   0.270   0.255   0.276   0.296   0.265   0.261   0.246   0.246   0.251   0.270   0.277   0.304   0.292   0.298   0.291   0.321   0.309   0.277   0.273   0.273   0.261   0.275   0.265   0.269   0.266   0.251   0.239   0.259   0.250   0.226   0.249   0.256   0.271   0.290   0.275   0.272   0.294   0.276   0.275   0.287   0.284   0.290   0.274   0.285   0.309   0.294   0.291   0.278   0.274   0.282   0.291   0.269   0.264   0.282   0.292   0.299   0.281   0.284   0.301   0.279   0.298   0.301   0.292   0.291   0.310   0.299   0.316   0.313   0.316   0.337   0.347   0.350   0.320   0.306   0.281   0.281   0.293   0.276   0.270   0.270   0.293   0.302   0.284   0.305   0.325   0.302   0.298   0.308   0.313   0.287   0.298   0.307   0.306   0.294   0.302   0.272   0.264   0.259   0.240   0.242   0.257   0.245   0.245   0.247   0.260   0.259   0.252   0.247   0.237   0.258   0.263   0.266   0.291   0.296   0.299   0.304   0.285   0.299   0.310   0.288   0.297   0.275   0.297   0.315   0.316   0.296   0.281   0.270   0.289   0.285   0.277   0.232
   168.40    0.281   0.286   0.288   0.295   0.295   0.286   0.294   0.289   0.279   0.273   0.278   0.271   0.270   0.291   0.275   0.272   0.266   0.269   0.266   0.263   0.261   0.264   0.253   0.249   0.253   0.262   0.274   0.284   0.274   0.278   0.288   0.280   0.273   0.265   0.256   0.244   0.253   0.272   0.286   0.264   0.268   0.295   0.298   0.336   0.319   0.313   0.287   0.294   0.296   0.281   0.293   0.285   0.305   0.293   0.328   0.303   0.282   0.293   0.312   0.299   0.269   0.298   0.273   0.288   0.281   0.273   0.266   0.260   0.244   0.244   0.268   0.281   0.299   0.293   0.288   0.303   0.304   0.306   0.261   0.272   0.272   0.282   0.276   0.269   0.268   0.270   0.241   0.252   0.261   0.237   0.244   0.256   0.268   0.282   0.276   0.256   0.271   0.285   0.298   0.290   0.303   0.300   0.293   0.297   0.287   0.290   0.294   0.284   0.287   0.278   0.284   0.287   0.298   0.275   0.289   0.301   0.294   0.272   0.285   0.281   0.289   0.285   0.285   0.290   0.288   0.305   0.305   0.300   0.286   0.300   0.312   0.320   0.330   0.322   0.301   0.278   0.274   0.288   0.274   0.280   0.284   0.289   0.277   0.307   0.321   0.301   0.300   0.304   0.301   0.307   0.292   0.281   0.286   0.286   0.277   0.276   0.287   0.265   0.278   0.261   0.258   0.263   0.257   0.252   0.243   0.230   0.250   0.252   0.267   0.245   0.255   0.253   0.279   0.291   0.290   0.292   0.295   0.292   0.301   0.298   0.318   0.299   0.297   0.313   0.308   0.307   0.299   0.297   0.282   0.291   0.261   0.254   0.240
   159.10    0.295   0.279   0.285   0.275   0.287   0.294   0.294   0.290   0.278   0.280   0.288   0.290   0.285   0.316   0.301   0.276   0.267   0.263   0.271   0.270   0.254   0.247   0.277   0.251   0.258   0.263   0.253   0.274   0.280   0.255   0.274   0.281   0.260   0.267   0.268   0.264   0.267   0.289   0.300   0.294   0.290   0.305   0.314   0.322   0.329   0.304   0.288   0.281   0.270   0.256   0.261   0.254   0.268   0.283   0.308   0.303   0.310   0.296   0.306   0.302   0.300   0.280   0.274   0.280   0.279   0.282   0.253   0.244   0.252   0.253   0.273   0.286   0.291   0.290   0.286   0.292   0.287   0.299   0.288   0.263   0.260   0.271   0.271   0.262   0.260   0.259   0.248   0.239   0.248   0.252   0.253   0.242   0.264   0.264   0.270   0.249   0.273   0.277   0.288   0.299   0.306   0.309   0.314   0.295   0.284   0.288   0.299   0.296   0.309   0.291   0.294   0.300   0.299   0.290   0.294   0.294   0.284   0.294   0.296   0.297   0.295   0.303   0.284   0.285   0.291   0.312   0.320   0.285   0.306   0.292   0.282   0.307   0.288   0.303   0.303   0.286   0.287   0.285   0.279   0.280   0.291   0.279   0.290   0.314   0.302   0.297   0.294   0.290   0.281   0.291   0.281   0.270   0.274   0.295   0.300   0.299   0.290   0.278   0.291   0.259   0.258   0.256   0.239   0.249   0.242   0.244   0.260   0.243   0.254   0.258   0.260   0.270   0.300   0.307   0.299   0.300   0.308   0.303   0.303   0.313   0.317   0.316   0.297   0.304   0.297   0.312   0.303   0.287   0.278   0.278   0.273   0.261   0.268
   149.80    0.311   0.291   0.294   0.290   0.314   0.306   0.302   0.290   0.301   0.307   0.300   0.293   0.314   0.310   0.292   0.271   0.250   0.262   0.260   0.273   0.258   0.276   0.281   0.280   0.248   0.257   0.253   0.251   0.271   0.275   0.272   0.281   0.286   0.263   0.262   0.270   0.264   0.287   0.281   0.298   0.285   0.304   0.326   0.310   0.321   0.318   0.315   0.286   0.279   0.261   0.250   0.268   0.247   0.275   0.295   0.295   0.299   0.293   0.290   0.287   0.279   0.304   0.278   0.286   0.286   0.274   0.258   0.257   0.261   0.271   0.255   0.276   0.272   0.291   0.285   0.266   0.268   0.274   0.265   0.251   0.260   0.257   0.261   0.248   0.273   0.262   0.258   0.249   0.250   0.248   0.276   0.261   0.245   0.253   0.255   0.268   0.267   0.279   0.282   0.292   0.314   0.310   0.293   0.303   0.301   0.298   0.300   0.300   0.315   0.310   0.314   0.298   0.298   0.300   0.305   0.297   0.302   0.298   0.312   0.295   0.273   0.302   0.291   0.284   0.301   0.317   0.307   0.286   0.296   0.284   0.279   0.297   0.295   0.290   0.295   0.293   0.287   0.266   0.275   0.263   0.280   0.300   0.305   0.287   0.291   0.290   0.268   0.269   0.291   0.287   0.264   0.268   0.264   0.284   0.299   0.289   0.282   0.292   0.286   0.269   0.269   0.259   0.261   0.247   0.245   0.251   0.239   0.255   0.237   0.225   0.250   0.263   0.287   0.298   0.290   0.284   0.288   0.309   0.290   0.317   0.322   0.308   0.289   0.297   0.306   0.318   0.297   0.291   0.270   0.262   0.253   0.261   0.252
   140.50    0.290   0.287   0.297   0.302   0.313   0.328   0.323   0.329   0.321   0.304   0.292   0.294   0.291   0.279   0.285   0.244   0.245   0.242   0.257   0.266   0.279   0.287   0.289   0.266   0.261   0.241   0.243   0.232   0.264   0.264   0.268   0.274   0.269   0.260   0.248   0.243   0.267   0.268   0.293   0.296   0.296   0.307   0.308   0.344   0.345   0.327   0.323   0.305   0.309   0.273   0.273   0.286   0.258   0.277   0.293   0.295   0.283   0.298   0.290   0.276   0.273   0.284   0.288   0.285   0.286   0.264   0.245   0.256   0.255   0.258   0.258   0.271   0.277   0.280   0.278   0.267   0.264   0.261   0.257   0.257   0.252   0.266   0.267   0.258   0.259   0.260   0.259   0.260   0.259   0.260   0.252   0.250   0.250   0.244   0.246   0.252   0.263   0.279   0.299   0.309   0.299   0.293   0.288   0.286   0.309   0.288   0.286   0.280   0.309   0.312   0.318   0.302   0.278   0.286   0.294   0.312   0.322   0.325   0.312   0.289   0.279   0.273   0.283   0.283   0.275   0.296   0.295   0.279   0.272   0.261   0.286   0.283   0.289   0.300   0.284   0.266   0.273   0.267   0.271   0.273   0.303   0.310   0.289   0.270   0.267   0.267   0.257   0.272   0.278   0.265   0.263   0.294   0.283   0.281   0.282   0.294   0.277   0.290   0.279   0.291   0.282   0.286   0.266   0.265   0.274   0.283   0.260   0.251   0.241   0.229   0.241   0.258   0.285   0.274   0.287   0.277   0.280   0.293   0.323   0.329   0.328   0.291   0.291   0.288   0.286   0.298   0.285   0.281   0.267   0.263   0.262   0.237   0.239
   131.20    0.302   0.299   0.300   0.296   0.300   0.308   0.324   0.329   0.321   0.305   0.309   0.291   0.283   0.277   0.275   0.274   0.259   0.252   0.257   0.278   0.271   0.290   0.284   0.261   0.256   0.247   0.244   0.237   0.257   0.257   0.262   0.271   0.255   0.255   0.253   0.255   0.241   0.267   0.285   0.293   0.307   0.304   0.301   0.325   0.343   0.332   0.326   0.326   0.329   0.296   0.286   0.295   0.280   0.281   0.293   0.301   0.295   0.295   0.302   0.274   0.273   0.297   0.297   0.311   0.294   0.283   0.262   0.242   0.251   0.281   0.283   0.268   0.268   0.280   0.284   0.282   0.268   0.272   0.265   0.251   0.257   0.246   0.267   0.259   0.257   0.269   0.260   0.260   0.264   0.256   0.256   0.254   0.258   0.247   0.247   0.269   0.281   0.267   0.269   0.298   0.313   0.306   0.294   0.316   0.327   0.298   0.300   0.298   0.297   0.314   0.312   0.311   0.299   0.289   0.296   0.303   0.319   0.342   0.333   0.288   0.273   0.274   0.268   0.270   0.271   0.284   0.279   0.268   0.275   0.276   0.296   0.306   0.276   0.264   0.270   0.266   0.261   0.278   0.295   0.280   0.295   0.295   0.291   0.288   0.277   0.275   0.265   0.263   0.273   0.258   0.273   0.286   0.285   0.291   0.275   0.289   0.293   0.287   0.301   0.300   0.294   0.299   0.278   0.262   0.260   0.278   0.258   0.250   0.245   0.243   0.249   0.265   0.283   0.286   0.288   0.287   0.271   0.291   0.310   0.317   0.314   0.298   0.281   0.295   0.298   0.287   0.287   0.281   0.266   0.270   0.265   0.249   0.240
   121.90    0.296   0.305   0.292   0.280   0.301   0.310   0.305   0.318   0.330   0.327   0.326   0.299   0.294   0.300   0.293   0.272   0.251   0.261   0.265   0.276   0.281   0.288   0.274   0.285   0.256   0.249   0.233   0.250   0.251   0.258   0.251   0.243   0.253   0.241   0.239   0.248   0.252   0.248   0.275   0.282   0.309   0.291   0.304   0.316   0.331   0.332   0.328   0.334   0.300   0.307   0.292   0.294   0.297   0.284   0.305   0.311   0.315   0.304   0.273   0.286   0.286   0.264   0.300   0.307   0.320   0.286   0.267   0.265   0.267   0.288   0.281   0.284   0.266   0.265   0.264   0.269   0.283   0.283   0.263   0.271   0.271   0.259   0.260   0.282   0.291   0.279   0.262   0.265   0.273   0.256   0.262   0.251   0.251   0.242   0.234   0.255   0.275   0.302   0.297   0.300   0.309   0.300   0.291   0.313   0.308   0.303   0.282   0.288   0.304   0.321   0.304   0.305   0.302   0.281   0.303   0.297   0.329   0.344   0.310   0.283   0.267   0.269   0.270   0.262   0.266   0.280   0.265   0.278   0.278   0.285   0.277   0.276   0.284   0.283   0.265   0.267   0.247   0.274   0.281   0.270   0.294   0.259   0.281   0.272   0.264   0.269   0.246   0.248   0.274   0.266   0.285   0.279   0.263   0.291   0.274   0.259   0.276   0.291   0.308   0.296   0.277   0.280   0.286   0.258   0.237   0.251   0.246   0.259   0.251   0.253   0.250   0.257   0.279   0.276   0.290   0.280   0.293   0.283   0.295   0.306   0.293   0.267   0.274   0.274   0.289   0.299   0.297   0.271   0.289   0.272   0.270   0.250   0.249
   112.60    0.296   0.278   0.277   0.287   0.317   0.321   0.338   0.329   0.331   0.347   0.331   0.300   0.313   0.299   0.302   0.280   0.282   0.287   0.278   0.278   0.287   0.270   0.279   0.270   0.256   0.270   0.252   0.258   0.255   0.267   0.234   0.231   0.234   0.247   0.237   0.232   0.249   0.260   0.263   0.259   0.288   0.304   0.294   0.296   0.300   0.296   0.298   0.313   0.318   0.308   0.301   0.291   0.303   0.301   0.304   0.328   0.317   0.302   0.293   0.299   0.273   0.273   0.298   0.321   0.305   0.275   0.294   0.266   0.286   0.286   0.287   0.284   0.290   0.287   0.286   0.265   0.278   0.279   0.278   0.260   0.264   0.275   0.287   0.301   0.313   0.297   0.287   0.272   0.277   0.267   0.255   0.256   0.240   0.253   0.244   0.247   0.267   0.287   0.307   0.322   0.315   0.308   0.318   0.310   0.305   0.311   0.286   0.287   0.305   0.317   0.316   0.303   0.278   0.271   0.283   0.282   0.322   0.325   0.293   0.278   0.271   0.264   0.264   0.280   0.282   0.283   0.300   0.306   0.276   0.277   0.278   0.285   0.282   0.284   0.273   0.252   0.253   0.259   0.257   0.259   0.270   0.247   0.264   0.284   0.269   0.251   0.264   0.259   0.267   0.249   0.252   0.264   0.272   0.261   0.263   0.280   0.279   0.292   0.294   0.289   0.272   0.280   0.290   0.267   0.245   0.240   0.260   0.263   0.256   0.250   0.243   0.267   0.263   0.268   0.282   0.280   0.270   0.288   0.288   0.294   0.300   0.263   0.261   0.266   0.286   0.284   0.281   0.259   0.292   0.290   0.276   0.253   0.263
   103.30    0.298   0.280   0.261   0.276   0.315   0.328   0.328   0.330   0.358   0.344   0.325   0.307   0.290   0.321   0.322   0.294   0.299   0.290   0.294   0.280   0.263   0.270   0.254   0.234   0.264   0.269   0.273   0.258   0.239   0.249   0.266   0.263   0.246   0.249   0.232   0.225   0.253   0.265   0.258   0.243   0.277   0.284   0.268   0.293   0.282   0.287   0.284   0.302   0.314   0.276   0.287   0.280   0.290   0.319   0.310   0.298   0.317   0.306   0.298   0.279   0.292   0.281   0.288   0.288   0.289   0.283   0.287   0.288   0.280   0.296   0.289   0.293   0.294   0.292   0.279   0.264   0.278   0.279   0.291   0.298   0.269   0.283   0.289   0.308   0.308   0.296   0.278   0.275   0.272   0.262   0.251   0.253   0.250   0.258   0.264   0.271   0.264   0.293   0.302   0.320   0.304   0.316   0.313   0.299   0.308   0.310   0.309   0.307   0.307   0.306   0.327   0.302   0.254   0.242   0.266   0.275   0.299   0.314   0.313   0.287   0.294   0.274   0.279   0.265   0.263   0.278   0.283   0.279   0.278   0.293   0.274   0.282   0.284   0.278   0.266   0.260   0.248   0.256   0.262   0.268   0.255   0.255   0.254   0.272   0.258   0.248   0.258   0.267   0.258   0.235   0.248   0.257   0.269   0.287   0.275   0.281   0.287   0.291   0.290   0.297   0.292   0.279   0.288   0.274   0.246   0.291   0.278   0.271   0.265   0.229   0.247   0.249   0.262   0.250   0.258   0.265   0.286   0.294   0.294   0.289   0.286   0.261   0.240   0.261   0.269   0.286   0.262   0.265   0.280   0.304   0.301   0.278   0.290
    94.00    0.296   0.284   0.295   0.290   0.308   0.314   0.308   0.320   0.324   0.313   0.326   0.315   0.331   0.317   0.329   0.305   0.310   0.298   0.296   0.269   0.264   0.254   0.242   0.236   0.247   0.240   0.254   0.265   0.263   0.257   0.268   0.263   0.255   0.255   0.239   0.248   0.247   0.262   0.261   0.256   0.274   0.277   0.288   0.271   0.278   0.274   0.296   0.310   0.300   0.280   0.283   0.305   0.298   0.306   0.316   0.310   0.323   0.299   0.313   0.297   0.282   0.285   0.285   0.281   0.290   0.273   0.285   0.280   0.294   0.288   0.281   0.274   0.303   0.294   0.260   0.271   0.287   0.297   0.277   0.271   0.261   0.264   0.269   0.285   0.296   0.276   0.273   0.275   0.273   0.260   0.267   0.264   0.258   0.275   0.265   0.275   0.275   0.285   0.299   0.311   0.294   0.294   0.295   0.318   0.301   0.311   0.313   0.291   0.284   0.293   0.298   0.278   0.258   0.258   0.275   0.272   0.280   0.290   0.292   0.303   0.279   0.277   0.263   0.258   0.258   0.268   0.247   0.266   0.267   0.261   0.277   0.278   0.275   0.271   0.279   0.274   0.260   0.261   0.260   0.277   0.276   0.267   0.237   0.267   0.268   0.242   0.255   0.265   0.236   0.231   0.250   0.249   0.285   0.279   0.269   0.273   0.287   0.277   0.276   0.284   0.291   0.276   0.279   0.264   0.252   0.271   0.275   0.272   0.271   0.247   0.252   0.253   0.258   0.261   0.258   0.270   0.294   0.294   0.298   0.296   0.273   0.268   0.268   0.250   0.278   0.268   0.275   0.258   0.273   0.275   0.286   0.269   0.283
    84.70    0.303   0.309   0.311   0.325   0.303   0.308   0.313   0.303   0.319   0.337   0.321   0.320   0.325   0.320   0.305   0.318   0.299   0.307   0.294   0.270   0.250   0.243   0.224   0.243   0.246   0.264   0.255   0.258   0.268   0.250   0.252   0.260   0.260   0.249   0.245   0.248   0.254   0.275   0.260   0.244   0.250   0.262   0.304   0.286   0.287   0.278   0.298   0.284   0.286   0.295   0.280   0.293   0.298   0.306   0.315   0.327   0.329   0.325   0.292   0.293   0.294   0.286   0.283   0.276   0.274   0.269   0.265   0.268   0.308   0.309   0.292   0.303   0.298   0.291   0.274   0.256   0.272   0.277   0.278   0.279   0.278   0.272   0.250   0.267   0.259   0.255   0.282   0.270   0.278   0.260   0.259   0.252   0.254   0.254   0.276   0.283   0.285   0.291   0.295   0.295   0.312   0.300   0.295   0.307   0.300   0.300   0.284   0.282   0.278   0.278   0.282   0.287   0.285   0.279   0.291   0.271   0.280   0.282   0.295   0.287   0.274   0.268   0.243   0.236   0.254   0.253   0.269   0.265   0.264   0.268   0.282   0.280   0.276   0.280   0.290   0.266   0.262   0.276   0.277   0.277   0.270   0.273   0.245   0.250   0.254   0.255   0.255   0.269   0.266   0.269   0.266   0.258   0.280   0.290   0.280   0.289   0.282   0.272   0.264   0.251   0.278   0.281   0.262   0.244   0.251   0.246   0.247   0.272   0.279   0.260   0.255   0.251   0.246   0.265   0.267   0.254   0.285   0.297   0.288   0.281   0.281   0.265   0.258   0.268   0.279   0.286   0.260   0.267   0.283   0.275   0.268   0.258   0.278
    75.40    0.301   0.302   0.306   0.329   0.318   0.319   0.307   0.309   0.312   0.328   0.335   0.326   0.327   0.313   0.301   0.301   0.283   0.296   0.306   0.261   0.246   0.233   0.231   0.237   0.248   0.263   0.259   0.245   0.262   0.259   0.259   0.254   0.258   0.240   0.242   0.244   0.255   0.271   0.272   0.263   0.274   0.276   0.282   0.297   0.286   0.276   0.283   0.288   0.286   0.277   0.297   0.268   0.283   0.297   0.317   0.324   0.322   0.328   0.284   0.290   0.281   0.271   0.296   0.280   0.279   0.283   0.293   0.292   0.321   0.325   0.322   0.309   0.283   0.279   0.266   0.259   0.263   0.269   0.270   0.274   0.281   0.266   0.268   0.280   0.265   0.262   0.279   0.281   0.261   0.261   0.253   0.243   0.249   0.266   0.272   0.275   0.286   0.287   0.311   0.300   0.306   0.305   0.310   0.304   0.285   0.283   0.275   0.277   0.264   0.262   0.270   0.273   0.287   0.289   0.292   0.284   0.256   0.271   0.275   0.271   0.241   0.250   0.265   0.256   0.262   0.263   0.255   0.251   0.273   0.291   0.290   0.280   0.263   0.275   0.281   0.282   0.270   0.272   0.266   0.277   0.276   0.269   0.265   0.278   0.266   0.257   0.269   0.265   0.266   0.261   0.267   0.252   0.259   0.268   0.264   0.269   0.272   0.272   0.257   0.253   0.266   0.261   0.271   0.278   0.269   0.257   0.263   0.281   0.268   0.259   0.246   0.258   0.261   0.268   0.254   0.264   0.279   0.269   0.280   0.289   0.280   0.270   0.262   0.275   0.281   0.276   0.264   0.270   0.277   0.287   0.262   0.247   0.276
    66.10    0.300   0.284   0.315   0.310   0.295   0.284   0.289   0.299   0.306   0.322   0.316   0.308   0.317   0.297   0.276   0.277   0.287   0.302   0.287   0.246   0.234   0.245   0.247   0.234   0.233   0.245   0.240   0.256   0.272   0.260   0.241   0.248   0.253   0.265   0.239   0.246   0.249   0.244   0.251   0.258   0.266   0.282   0.285   0.278   0.267   0.279   0.283   0.259   0.251   0.266   0.269   0.268   0.288   0.283   0.304   0.329   0.313   0.323   0.299   0.273   0.280   0.282   0.285   0.291   0.293   0.306   0.312   0.308   0.322   0.333   0.320   0.304   0.296   0.304   0.269   0.262   0.260   0.251   0.267   0.262   0.267   0.251   0.254   0.271   0.265   0.268   0.263   0.266   0.268   0.250   0.256   0.257   0.254   0.253   0.279   0.281   0.272   0.282   0.290   0.291   0.294   0.322   0.300   0.284   0.316   0.298   0.289   0.267   0.260   0.263   0.279   0.270   0.292   0.289   0.277   0.274   0.261   0.259   0.274   0.271   0.261   0.258   0.261   0.272   0.285   0.257   0.254   0.252   0.267   0.279   0.269   0.271   0.269   0.254   0.261   0.262   0.262   0.280   0.265   0.279   0.266   0.268   0.255   0.265   0.260   0.258   0.258   0.269   0.250   0.246   0.268   0.241   0.247   0.238   0.247   0.265   0.277   0.252   0.255   0.252   0.257   0.250   0.254   0.274   0.273   0.265   0.263   0.258   0.257   0.267   0.254   0.277   0.272   0.270   0.254   0.277   0.250   0.256   0.274   0.272   0.275   0.273   0.273   0.270   0.266   0.258   0.259   0.257   0.271   0.267   0.267   0.274   0.282
    56.80    0.308   0.302   0.319   0.320   0.317   0.280   0.299   0.286   0.291   0.309   0.320   0.304   0.324   0.308   0.282   0.277   0.276   0.303   0.269   0.261   0.271   0.254   0.241   0.250   0.246   0.258   0.243   0.244   0.251   0.250   0.238   0.238   0.243   0.246   0.264   0.259   0.259   0.268   0.257   0.261   0.266   0.264   0.258   0.271   0.284   0.284   0.270   0.261   0.275   0.275   0.285   0.289   0.293   0.306   0.315   0.320   0.329   0.310   0.296   0.299   0.287   0.288   0.306   0.305   0.307   0.312   0.320   0.317   0.316   0.315   0.293   0.294   0.295   0.296   0.295   0.273   0.272   0.249   0.278   0.251   0.252   0.250   0.254   0.267   0.265   0.268   0.241   0.240   0.252   0.249   0.257   0.226   0.235   0.253   0.284   0.275   0.261   0.262   0.268   0.278   0.292   0.293   0.283   0.290   0.293   0.297   0.284   0.274   0.272   0.281   0.248   0.246   0.259   0.277   0.287   0.264   0.276   0.269   0.268   0.270   0.266   0.266   0.271   0.269   0.288   0.258   0.256   0.250   0.257   0.265   0.266   0.258   0.253   0.243   0.246   0.254   0.264   0.272   0.272   0.269   0.248   0.247   0.252   0.263   0.266   0.271   0.257   0.259   0.246   0.252   0.264   0.240   0.244   0.242   0.256   0.247   0.261   0.254   0.240   0.252   0.254   0.249   0.249   0.256   0.247   0.240   0.258   0.242   0.236   0.257   0.258   0.263   0.268   0.262   0.248   0.272   0.248   0.275   0.292   0.279   0.275   0.272   0.267   0.258   0.250   0.241   0.241   0.225   0.254   0.259   0.277   0.290   0.296
    47.50    0.328   0.327   0.321   0.329   0.324   0.304   0.315   0.305   0.313   0.316   0.313   0.301   0.298   0.306   0.287   0.298   0.270   0.289   0.288   0.276   0.278   0.260   0.259   0.269   0.260   0.273   0.262   0.262   0.241   0.246   0.242   0.243   0.255   0.247   0.253   0.263   0.248   0.268   0.255   0.253   0.257   0.261   0.274   0.283   0.281   0.284   0.267   0.273   0.263   0.260   0.293   0.301   0.304   0.325   0.320   0.329   0.335   0.303   0.295   0.307   0.315   0.309   0.298   0.309   0.298   0.292   0.308   0.309   0.294   0.304   0.291   0.307   0.303   0.291   0.287   0.281   0.273   0.276   0.272   0.255   0.247   0.250   0.269   0.281   0.279   0.264   0.247   0.242   0.242   0.246   0.240   0.247   0.248   0.274   0.289   0.281   0.268   0.290   0.276   0.281   0.263   0.270   0.263   0.290   0.294   0.304   0.310   0.292   0.275   0.262   0.231   0.239   0.249   0.261   0.272   0.277   0.281   0.281   0.269   0.276   0.256   0.276   0.266   0.293   0.294   0.276   0.266   0.256   0.250   0.259   0.259   0.252   0.256   0.248   0.243   0.276   0.281   0.269   0.256   0.258   0.259   0.242   0.249   0.262   0.269   0.280   0.284   0.287   0.262   0.243   0.254   0.249   0.218   0.237   0.237   0.242   0.252   0.250   0.248   0.247   0.245   0.258   0.259   0.257   0.252   0.246   0.250   0.242   0.236   0.259   0.252   0.252   0.263   0.250   0.237   0.257   0.259   0.280   0.292   0.272   0.278   0.282   0.277   0.278   0.234   0.227   0.232   0.249   0.257   0.275   0.298   0.294   0.291
    38.20    0.304   0.322   0.340   0.319   0.305   0.304   0.305   0.331   0.325   0.339   0.308   0.310   0.315   0.300   0.280   0.269   0.278   0.277   0.268   0.277   0.277   0.271   0.251   0.257   0.259   0.258   0.275   0.261   0.258   0.244   0.230   0.239   0.267   0.271   0.243   0.260   0.262   0.252   0.254   0.260   0.250   0.259   0.262   0.267   0.269   0.274   0.263   0.277   0.266   0.274   0.300   0.319   0.331   0.338   0.333   0.340   0.316   0.285   0.291   0.315   0.316   0.301   0.313   0.304   0.292   0.276   0.303   0.293   0.295   0.301   0.311   0.292   0.302   0.300   0.265   0.272   0.269   0.281   0.270   0.249   0.243   0.243   0.261   0.295   0.294   0.271   0.260   0.257   0.270   0.263   0.249   0.247   0.268   0.277   0.289   0.288   0.288   0.279   0.268   0.276   0.266   0.247   0.262   0.304   0.300   0.307   0.302   0.298   0.276   0.268   0.254   0.230   0.227   0.233   0.250   0.276   0.270   0.255   0.263   0.269   0.276   0.264   0.284   0.307   0.310   0.301   0.274   0.255   0.256   0.272   0.257   0.264   0.260   0.262   0.254   0.272   0.280   0.279   0.270   0.252   0.244   0.249   0.244   0.269   0.282   0.276   0.287   0.284   0.279   0.258   0.249   0.238   0.224   0.227   0.242   0.247   0.266   0.265   0.246   0.239   0.238   0.248   0.259   0.264   0.268   0.255   0.238   0.257   0.259   0.271   0.255   0.247   0.224   0.241   0.235   0.239   0.267   0.268   0.278   0.252   0.269   0.294   0.305   0.285   0.269   0.254   0.241   0.246   0.245   0.274   0.297   0.278   0.273
    28.90    0.305   0.330   0.331   0.311   0.291   0.291   0.315   0.322   0.332   0.315   0.316   0.319   0.284   0.289   0.262   0.263   0.287   0.287   0.282   0.273   0.274   0.247   0.248   0.271   0.272   0.270   0.260   0.269   0.260   0.252   0.247   0.250   0.259   0.258   0.251   0.250   0.250   0.254   0.245   0.261   0.258   0.257   0.247   0.263   0.271   0.264   0.256   0.271   0.281   0.279   0.297   0.317   0.325   0.340   0.333   0.326   0.310   0.302   0.288   0.293   0.321   0.318   0.299   0.293   0.283   0.286   0.293   0.292   0.301   0.284   0.276   0.295   0.298   0.315   0.278   0.268   0.254   0.281   0.285   0.281   0.300   0.274   0.270   0.273   0.268   0.287   0.268   0.277   0.269   0.270   0.251   0.269   0.276   0.298   0.284   0.267   0.277   0.270   0.265   0.246   0.232   0.259   0.272   0.301   0.296   0.308   0.280   0.285   0.281   0.265   0.238   0.229   0.232   0.231   0.228   0.254   0.249   0.244   0.263   0.284   0.267   0.287   0.282   0.300   0.295   0.279   0.290   0.263   0.259   0.265   0.274   0.252   0.252   0.259   0.259   0.286   0.287   0.282   0.259   0.244   0.238   0.246   0.262   0.279   0.283   0.273   0.291   0.281   0.275   0.266   0.251   0.244   0.230   0.218   0.245   0.235   0.245   0.255   0.259   0.254   0.249   0.253   0.247   0.247   0.258   0.267   0.266   0.266   0.257   0.258   0.259   0.244   0.230   0.247   0.246   0.248   0.258   0.261   0.270   0.269   0.287   0.292   0.304   0.284   0.252   0.248   0.251   0.266   0.267   0.278   0.286   0.284   0.282
    19.60    0.299   0.301   0.304   0.303   0.298   0.300   0.312   0.322   0.317   0.311   0.300   0.279   0.281   0.274   0.271   0.277   0.283   0.270   0.278   0.270   0.274   0.268   0.264   0.253   0.254   0.259   0.275   0.261   0.268   0.253   0.255   0.241   0.248   0.267   0.244   0.263   0.254   0.244   0.252   0.258   0.263   0.264   0.255   0.266   0.281   0.273   0.282   0.270   0.274   0.275   0.283   0.304   0.305   0.332   0.354   0.330   0.311   0.312   0.303   0.307   0.326   0.308   0.317   0.315   0.311   0.293   0.294   0.282   0.293   0.291   0.276   0.289   0.316   0.315   0.280   0.277   0.265   0.276   0.268   0.286   0.289   0.297   0.286   0.282   0.271   0.293   0.301   0.311   0.283   0.267   0.276   0.289   0.295   0.303   0.279   0.274   0.258   0.258   0.247   0.250   0.265   0.265   0.273   0.297   0.299   0.299   0.287   0.287   0.256   0.259   0.247   0.247   0.258   0.241   0.251   0.257   0.248   0.260   0.279   0.283   0.285   0.272   0.271   0.280   0.280   0.288   0.287   0.296   0.265   0.273   0.261   0.261   0.261   0.259   0.277   0.293   0.286   0.273   0.257   0.254   0.230   0.246   0.254   0.274   0.262   0.280   0.288   0.268   0.260   0.263   0.251   0.251   0.223   0.230   0.238   0.250   0.267   0.259   0.259   0.272   0.264   0.278   0.267   0.264   0.261   0.263   0.264   0.267   0.245   0.244   0.246   0.247   0.248   0.249   0.256   0.241   0.254   0.252   0.264   0.261   0.264   0.282   0.290   0.266   0.242   0.219   0.239   0.266   0.281   0.287   0.275   0.266   0.267
    10.30    0.289   0.283   0.292   0.293   0.311   0.298   0.288   0.298   0.301   0.306   0.298   0.282   0.286   0.295   0.281   0.277   0.276   0.267   0.292   0.282   0.295   0.287   0.276   0.258   0.251   0.266   0.260   0.265   0.253   0.252   0.237   0.245   0.244   0.256   0.257   0.259   0.260   0.242   0.246   0.253   0.266   0.262   0.248   0.270   0.269   0.264   0.293   0.265   0.285   0.288   0.287   0.291   0.294   0.299   0.328   0.328   0.308   0.311   0.313   0.325   0.320   0.313   0.307   0.316   0.303   0.286   0.273   0.264   0.279   0.278   0.287   0.293   0.315   0.320   0.307   0.281   0.286   0.263   0.264   0.272   0.271   0.277   0.287   0.286   0.285   0.309   0.333   0.320   0.294   0.285   0.262   0.302   0.317   0.293   0.296   0.276   0.268   0.250   0.253   0.246   0.268   0.250   0.267   0.274   0.299   0.307   0.292   0.283   0.255   0.247   0.238   0.241   0.255   0.264   0.267   0.283   0.277   0.261   0.275   0.288   0.280   0.258   0.278   0.265   0.259   0.271   0.275   0.276   0.276   0.280   0.254   0.252   0.257   0.268   0.271   0.277   0.281   0.264   0.275   0.261   0.244   0.245   0.267   0.265   0.276   0.298   0.286   0.294   0.260   0.271   0.248   0.245   0.234   0.248   0.241   0.257   0.275   0.276   0.288   0.277   0.276   0.262   0.269   0.262   0.258   0.253   0.234   0.236   0.262   0.252   0.254   0.268   0.251   0.244   0.244   0.252   0.237   0.257   0.277   0.268   0.274   0.275   0.276   0.268   0.241   0.244   0.256   0.269   0.272   0.294   0.275   0.264   0.271
     1.00    0.286   0.294   0.302   0.309   0.304   0.299   0.282   0.285   0.305   0.302   0.307   0.305   0.311   0.301   0.283   0.287   0.284   0.280   0.281   0.285   0.301   0.302   0.276   0.258   0.252   0.256   0.255   0.244   0.254   0.249   0.250   0.242   0.252   0.255   0.246   0.243   0.256   0.258   0.258   0.262   0.258   0.244   0.269   0.255   0.264   0.274   0.284   0.272   0.269   0.270   0.274   0.280   0.287   0.274   0.300   0.308   0.304   0.319   0.330   0.311   0.330   0.322   0.305   0.322   0.298   0.297   0.290   0.290   0.268   0.278   0.279   0.281   0.285   0.296   0.318   0.309   0.289   0.263   0.246   0.264   0.261   0.280   0.287   0.297   0.300   0.301   0.318   0.318   0.296   0.278   0.295   0.287   0.307   0.293   0.290   0.283   0.255   0.252   0.244   0.258   0.274   0.273   0.265   0.276   0.276   0.290   0.296   0.266   0.255   0.245   0.253   0.260   0.268   0.280   0.277   0.282   0.282   0.284   0.294   0.287   0.275   0.297   0.276   0.268   0.266   0.272   0.272   0.285   0.289   0.272   0.286   0.262   0.243   0.249   0.266   0.263   0.271   0.264   0.262   0.268   0.246   0.251   0.264   0.260   0.272   0.290   0.288   0.260   0.270   0.259   0.241   0.231   0.237   0.251   0.246   0.266   0.279   0.282   0.279   0.279   0.278   0.256   0.268   0.262   0.263   0.248   0.231   0.241   0.242   0.231   0.232   0.255   0.259   0.264   0.249   0.244   0.259   0.255   0.264   0.272   0.266   0.271   0.270   0.247   0.236   0.238   0.259   0.260   0.266   0.283   0.272   0.261   0.262

   Height   Standard deviation at grid points for the v component:
   354.40    0.235   0.239   0.234   0.225   0.224   0.229   0.230   0.246   0.249   0.246   0.235   0.228   0.233   0.237   0.233   0.231   0.238   0.227   0.219   0.204   0.211   0.221   0.205   0.210   0.218   0.218   0.226   0.217   0.222   0.217   0.233   0.237   0.229   0.223   0.227   0.226   0.228   0.222   0.231   0.248   0.232   0.242   0.238   0.236   0.230   0.239   0.241   0.229   0.228   0.239   0.237   0.245   0.240   0.238   0.238   0.226   0.221   0.234   0.240   0.232   0.225   0.232   0.229   0.236   0.239   0.230   0.234   0.233   0.237   0.219   0.207   0.223   0.245   0.242   0.247   0.233   0.221   0.220   0.236   0.244   0.228   0.232   0.226   0.216   0.208   0.209   0.219   0.222   0.228   0.234   0.230   0.235   0.234   0.237   0.243   0.242   0.244   0.244   0.243   0.234   0.234   0.229   0.229   0.234   0.224   0.233   0.220   0.236   0.231   0.232   0.236   0.238   0.227   0.231   0.249   0.237   0.239   0.245   0.255   0.263   0.257   0.247   0.232   0.219   0.224   0.223   0.232   0.233   0.235   0.242   0.237   0.244   0.242   0.239   0.238   0.248   0.256   0.250   0.264   0.265   0.260   0.264   0.262   0.264   0.265   0.265   0.267   0.259   0.256   0.252   0.236   0.230   0.243   0.235   0.240   0.253   0.245   0.237   0.228   0.218   0.221   0.225   0.236   0.233   0.247   0.224   0.229   0.226   0.227   0.205   0.202   0.212   0.213   0.203   0.225   0.215   0.215   0.218   0.206   0.221   0.222   0.238   0.236   0.233   0.243   0.240   0.248   0.246   0.242   0.226   0.222   0.228   0.231
   345.10    0.238   0.243   0.236   0.229   0.224   0.232   0.249   0.237   0.240   0.242   0.241   0.225   0.226   0.238   0.232   0.238   0.245   0.237   0.236   0.214   0.219   0.229   0.214   0.214   0.213   0.222   0.222   0.223   0.217   0.230   0.225   0.228   0.228   0.220   0.228   0.231   0.232   0.236   0.242   0.237   0.230   0.243   0.241   0.223   0.231   0.239   0.233   0.222   0.230   0.240   0.237   0.246   0.247   0.252   0.229   0.227   0.228   0.224   0.232   0.225   0.225   0.222   0.218   0.223   0.227   0.221   0.215   0.217   0.217   0.216   0.219   0.217   0.233   0.241   0.240   0.237   0.222   0.225   0.226   0.241   0.231   0.230   0.220   0.213   0.202   0.199   0.211   0.218   0.220   0.221   0.219   0.237   0.235   0.229   0.238   0.245   0.252   0.252   0.242   0.236   0.240   0.230   0.233   0.236   0.229   0.222   0.226   0.231   0.228   0.239   0.236   0.224   0.215   0.218   0.233   0.235   0.232   0.252   0.262   0.276   0.253   0.248   0.234   0.221   0.226   0.217   0.223   0.234   0.231   0.229   0.230   0.239   0.237   0.251   0.237   0.239   0.244   0.249   0.255   0.265   0.263   0.251   0.252   0.267   0.273   0.274   0.265   0.271   0.248   0.234   0.232   0.240   0.228   0.237   0.238   0.246   0.241   0.242   0.220   0.220   0.220   0.237   0.240   0.238   0.224   0.226   0.231   0.234   0.217   0.213   0.211   0.226   0.214   0.216   0.221   0.217   0.216   0.218   0.216   0.212   0.226   0.241   0.233   0.230   0.228   0.243   0.252   0.244   0.239   0.229   0.230   0.226   0.238
   335.80    0.245   0.251   0.243   0.227   0.236   0.236   0.224   0.239   0.245   0.252   0.241   0.251   0.227   0.229   0.235   0.243   0.248   0.239   0.237   0.224   0.216   0.219   0.214   0.226   0.214   0.219   0.214   0.218   0.221   0.219   0.219   0.233   0.222   0.216   0.224   0.238   0.243   0.248   0.251   0.245   0.234   0.234   0.228   0.225   0.226   0.233   0.232   0.225   0.235   0.238   0.243   0.246   0.247   0.240   0.229   0.236   0.230   0.226   0.224   0.230   0.221   0.222   0.217   0.219   0.224   0.222   0.220   0.218   0.221   0.230   0.229   0.223   0.225   0.227   0.241   0.228   0.227   0.241   0.238   0.232   0.239   0.231   0.213   0.213   0.214   0.211   0.212   0.212   0.217   0.232   0.234   0.223   0.233   0.240   0.242   0.250   0.240   0.249   0.231   0.244   0.230   0.218   0.230   0.227   0.230   0.228   0.225   0.225   0.221   0.237   0.234   0.220   0.229   0.219   0.227   0.236   0.240   0.250   0.247   0.248   0.250   0.249   0.233   0.237   0.239   0.230   0.222   0.233   0.230   0.230   0.229   0.239   0.244   0.243   0.243   0.242   0.236   0.235   0.243   0.251   0.250   0.260   0.261   0.263   0.273   0.275   0.261   0.250   0.256   0.241   0.241   0.232   0.240   0.230   0.238   0.236   0.245   0.244   0.234   0.228   0.225   0.234   0.246   0.235   0.219   0.218   0.228   0.230   0.221   0.220   0.220   0.227   0.220   0.215   0.235   0.222   0.226   0.226   0.229   0.222   0.224   0.227   0.223   0.226   0.227   0.233   0.245   0.241   0.238   0.237   0.239   0.230   0.247
   326.50    0.243   0.238   0.235   0.227   0.233   0.234   0.233   0.235   0.242   0.247   0.246   0.236   0.235   0.231   0.234   0.234   0.244   0.234   0.225   0.229   0.221   0.223   0.211   0.225   0.218   0.211   0.228   0.222   0.226   0.215   0.208   0.212   0.227   0.232   0.234   0.245   0.251   0.235   0.248   0.239   0.241   0.229   0.228   0.239   0.247   0.228   0.229   0.223   0.230   0.235   0.228   0.232   0.227   0.236   0.216   0.212   0.222   0.224   0.220   0.217   0.225   0.221   0.224   0.223   0.223   0.216   0.216   0.225   0.235   0.236   0.228   0.232   0.222   0.224   0.237   0.230   0.240   0.247   0.245   0.236   0.237   0.220   0.215   0.220   0.212   0.218   0.217   0.208   0.219   0.221   0.227   0.238   0.242   0.246   0.243   0.249   0.244   0.241   0.233   0.243   0.219   0.226   0.232   0.218   0.229   0.219   0.215   0.219   0.223   0.222   0.224   0.222   0.224   0.227   0.234   0.235   0.231   0.235   0.241   0.243   0.243   0.244   0.249   0.250   0.246   0.229   0.229   0.227   0.227   0.237   0.239   0.233   0.232   0.233   0.233   0.240   0.234   0.234   0.244   0.240   0.253   0.261   0.247   0.246   0.260   0.272   0.256   0.256   0.248   0.230   0.226   0.217   0.223   0.228   0.238   0.234   0.233   0.243   0.236   0.239   0.221   0.231   0.240   0.226   0.217   0.219   0.217   0.218   0.224   0.231   0.233   0.230   0.233   0.220   0.232   0.226   0.224   0.220   0.224   0.214   0.220   0.219   0.216   0.216   0.223   0.238   0.243   0.241   0.233   0.232   0.236   0.238   0.232
[...]
   103.30    0.141   0.138   0.135   0.137   0.139   0.140   0.146   0.141   0.147   0.151   0.151   0.140   0.136   0.136   0.143   0.145   0.142   0.140   0.136   0.135   0.143   0.145   0.143   0.137   0.139   0.140   0.140   0.143   0.147   0.145   0.146   0.147   0.144   0.144   0.143   0.143   0.139   0.144   0.143   0.142   0.145   0.148   0.147   0.151   0.150   0.150   0.145   0.146   0.144   0.148   0.149   0.151   0.150   0.145   0.142   0.142   0.145   0.141   0.145   0.143   0.145   0.143   0.146   0.149   0.152   0.151   0.155   0.144   0.148   0.146   0.149   0.146   0.146   0.146   0.145   0.143   0.151   0.141   0.145   0.141   0.147   0.149   0.149   0.147   0.146   0.142   0.143   0.148   0.143   0.139   0.138   0.139   0.139   0.138   0.137   0.137   0.138   0.141   0.147   0.142   0.149   0.147   0.145   0.147   0.148   0.146   0.139   0.143   0.143   0.144   0.142   0.137   0.141   0.140   0.139   0.142   0.141   0.145   0.138   0.143   0.145   0.144   0.146   0.145   0.147   0.140   0.142   0.142   0.151   0.145   0.148   0.144   0.143   0.144   0.144   0.145   0.143   0.145   0.144   0.140   0.144   0.149   0.148   0.148   0.149   0.150   0.148   0.143   0.143   0.146   0.144   0.138   0.140   0.136   0.132   0.141   0.143   0.146   0.148   0.146   0.145   0.146   0.145   0.145   0.152   0.143   0.142   0.143   0.143   0.144   0.145   0.141   0.142   0.141   0.142   0.142   0.146   0.145   0.143   0.145   0.148   0.143   0.142   0.143   0.143   0.143   0.144   0.142   0.141   0.138   0.140   0.142   0.146
    94.00    0.136   0.134   0.138   0.139   0.141   0.139   0.141   0.139   0.143   0.144   0.147   0.143   0.142   0.139   0.144   0.150   0.148   0.144   0.137   0.137   0.136   0.143   0.145   0.139   0.140   0.142   0.137   0.145   0.144   0.143   0.147   0.149   0.145   0.146   0.142   0.145   0.145   0.141   0.144   0.143   0.143   0.145   0.147   0.147   0.147   0.146   0.146   0.145   0.141   0.145   0.149   0.149   0.147   0.142   0.144   0.144   0.145   0.146   0.142   0.145   0.146   0.146   0.142   0.145   0.147   0.144   0.150   0.146   0.145   0.146   0.146   0.142   0.145   0.149   0.148   0.144   0.144   0.142   0.144   0.142   0.146   0.144   0.154   0.149   0.147   0.143   0.141   0.141   0.143   0.140   0.137   0.141   0.143   0.143   0.137   0.139   0.137   0.144   0.146   0.145   0.145   0.149   0.150   0.147   0.144   0.145   0.141   0.142   0.143   0.139   0.140   0.139   0.137   0.142   0.138   0.143   0.141   0.144   0.143   0.144   0.145   0.145   0.147   0.144   0.144   0.146   0.136   0.143   0.144   0.147   0.146   0.148   0.147   0.148   0.144   0.143   0.147   0.146   0.146   0.143   0.148   0.149   0.151   0.147   0.145   0.147   0.147   0.143   0.139   0.141   0.147   0.143   0.142   0.138   0.137   0.138   0.145   0.150   0.148   0.146   0.148   0.152   0.147   0.146   0.146   0.146   0.146   0.145   0.147   0.146   0.144   0.140   0.140   0.142   0.143   0.148   0.145   0.142   0.142   0.145   0.149   0.144   0.145   0.147   0.147   0.140   0.142   0.147   0.145   0.141   0.144   0.143   0.146
    84.70    0.139   0.136   0.140   0.144   0.143   0.140   0.134   0.141   0.139   0.140   0.141   0.144   0.146   0.143   0.145   0.143   0.142   0.142   0.136   0.133   0.137   0.139   0.140   0.141   0.140   0.143   0.138   0.142   0.144   0.150   0.145   0.142   0.141   0.143   0.140   0.145   0.150   0.150   0.146   0.142   0.139   0.146   0.149   0.147   0.143   0.141   0.144   0.147   0.145   0.144   0.149   0.152   0.145   0.144   0.147   0.147   0.144   0.143   0.140   0.140   0.139   0.142   0.145   0.142   0.143   0.145   0.152   0.146   0.144   0.146   0.148   0.144   0.142   0.144   0.144   0.149   0.143   0.146   0.145   0.149   0.151   0.145   0.145   0.149   0.144   0.141   0.142   0.142   0.147   0.142   0.140   0.137   0.143   0.142   0.140   0.138   0.143   0.141   0.150   0.149   0.146   0.149   0.149   0.148   0.149   0.145   0.144   0.144   0.143   0.142   0.144   0.141   0.139   0.140   0.146   0.144   0.145   0.149   0.146   0.142   0.146   0.141   0.147   0.144   0.146   0.141   0.141   0.147   0.146   0.151   0.150   0.149   0.151   0.148   0.142   0.143   0.141   0.148   0.140   0.142   0.145   0.145   0.144   0.145   0.143   0.142   0.144   0.143   0.142   0.141   0.142   0.143   0.144   0.141   0.136   0.142   0.140   0.144   0.143   0.144   0.141   0.146   0.148   0.148   0.148   0.149   0.146   0.146   0.140   0.147   0.143   0.139   0.139   0.139   0.142   0.140   0.144   0.143   0.143   0.144   0.148   0.148   0.152   0.146   0.144   0.144   0.143   0.145   0.144   0.141   0.139   0.137   0.142
    75.40    0.138   0.138   0.139   0.147   0.142   0.141   0.141   0.137   0.135   0.134   0.143   0.145   0.143   0.147   0.148   0.146   0.141   0.142   0.137   0.140   0.135   0.138   0.136   0.138   0.137   0.139   0.142   0.142   0.139   0.143   0.143   0.143   0.141   0.140   0.142   0.142   0.144   0.150   0.149   0.145   0.142   0.147   0.147   0.148   0.146   0.144   0.144   0.149   0.147   0.147   0.145   0.142   0.139   0.142   0.143   0.146   0.145   0.147   0.143   0.141   0.140   0.136   0.140   0.143   0.144   0.142   0.146   0.150   0.151   0.148   0.150   0.143   0.141   0.146   0.148   0.149   0.145   0.144   0.148   0.147   0.147   0.145   0.149   0.149   0.142   0.145   0.143   0.142   0.144   0.144   0.141   0.140   0.140   0.141   0.136   0.139   0.142   0.144   0.143   0.147   0.147   0.151   0.152   0.149   0.152   0.149   0.150   0.146   0.141   0.146   0.144   0.138   0.140   0.143   0.146   0.143   0.143   0.144   0.143   0.144   0.143   0.144   0.142   0.145   0.143   0.143   0.146   0.145   0.150   0.147   0.149   0.150   0.150   0.146   0.139   0.136   0.140   0.146   0.144   0.141   0.144   0.147   0.145   0.145   0.145   0.144   0.142   0.143   0.139   0.141   0.142   0.148   0.144   0.144   0.143   0.144   0.145   0.145   0.142   0.137   0.141   0.146   0.146   0.144   0.151   0.144   0.146   0.141   0.142   0.139   0.143   0.140   0.140   0.139   0.138   0.144   0.143   0.142   0.142   0.144   0.147   0.146   0.146   0.144   0.142   0.144   0.146   0.142   0.143   0.147   0.138   0.131   0.139
    66.10    0.140   0.142   0.142   0.145   0.144   0.141   0.139   0.136   0.135   0.133   0.139   0.142   0.145   0.142   0.142   0.144   0.141   0.142   0.140   0.135   0.134   0.138   0.133   0.136   0.136   0.136   0.136   0.142   0.142   0.140   0.142   0.146   0.144   0.140   0.142   0.138   0.144   0.148   0.148   0.148   0.143   0.144   0.146   0.144   0.145   0.146   0.153   0.149   0.153   0.147   0.143   0.138   0.143   0.143   0.139   0.146   0.148   0.144   0.144   0.145   0.144   0.142   0.141   0.141   0.140   0.142   0.143   0.147   0.149   0.147   0.146   0.142   0.143   0.149   0.151   0.145   0.144   0.146   0.145   0.144   0.149   0.148   0.147   0.150   0.149   0.142   0.138   0.144   0.147   0.145   0.143   0.138   0.136   0.137   0.142   0.141   0.138   0.145   0.143   0.141   0.144   0.146   0.145   0.147   0.150   0.147   0.149   0.143   0.142   0.145   0.147   0.141   0.147   0.143   0.146   0.147   0.142   0.143   0.145   0.144   0.142   0.140   0.141   0.144   0.143   0.144   0.146   0.143   0.146   0.148   0.150   0.146   0.146   0.141   0.142   0.142   0.138   0.141   0.141   0.142   0.139   0.144   0.142   0.144   0.144   0.143   0.141   0.139   0.142   0.143   0.147   0.145   0.143   0.143   0.143   0.143   0.145   0.144   0.137   0.137   0.140   0.144   0.146   0.141   0.146   0.147   0.143   0.146   0.138   0.140   0.142   0.145   0.138   0.137   0.139   0.139   0.138   0.141   0.140   0.141   0.141   0.146   0.145   0.144   0.141   0.142   0.139   0.142   0.142   0.143   0.134   0.135   0.133
    56.80    0.138   0.141   0.140   0.144   0.144   0.144   0.138   0.142   0.138   0.138   0.139   0.137   0.140   0.140   0.133   0.138   0.140   0.142   0.137   0.134   0.135   0.141   0.137   0.131   0.134   0.140   0.136   0.134   0.141   0.142   0.142   0.142   0.142   0.140   0.139   0.140   0.144   0.145   0.151   0.149   0.144   0.140   0.146   0.143   0.144   0.147   0.149   0.150   0.146   0.146   0.142   0.135   0.138   0.142   0.140   0.143   0.144   0.141   0.145   0.149   0.141   0.138   0.138   0.140   0.141   0.143   0.147   0.143   0.146   0.142   0.142   0.143   0.140   0.141   0.149   0.142   0.142   0.146   0.147   0.147   0.147   0.145   0.148   0.152   0.147   0.147   0.146   0.147   0.143   0.143   0.147   0.141   0.140   0.139   0.144   0.146   0.149   0.144   0.141   0.144   0.142   0.140   0.142   0.145   0.152   0.152   0.150   0.147   0.137   0.145   0.140   0.143   0.148   0.150   0.154   0.145   0.147   0.138   0.142   0.145   0.141   0.137   0.143   0.145   0.142   0.144   0.142   0.143   0.144   0.148   0.148   0.146   0.145   0.143   0.144   0.143   0.142   0.140   0.144   0.142   0.142   0.141   0.143   0.146   0.145   0.145   0.142   0.143   0.140   0.140   0.142   0.143   0.143   0.145   0.144   0.145   0.144   0.145   0.142   0.138   0.140   0.143   0.142   0.143   0.143   0.147   0.144   0.141   0.137   0.138   0.143   0.143   0.142   0.139   0.138   0.138   0.143   0.138   0.142   0.144   0.145   0.143   0.144   0.147   0.142   0.134   0.134   0.139   0.135   0.140   0.137   0.133   0.139
    47.50    0.139   0.140   0.139   0.144   0.140   0.140   0.139   0.144   0.143   0.137   0.139   0.139   0.140   0.136   0.132   0.136   0.140   0.139   0.133   0.134   0.137   0.136   0.137   0.135   0.136   0.139   0.136   0.137   0.143   0.140   0.140   0.140   0.138   0.134   0.138   0.135   0.144   0.148   0.150   0.152   0.145   0.141   0.140   0.146   0.146   0.146   0.145   0.147   0.142   0.142   0.143   0.140   0.139   0.138   0.142   0.141   0.142   0.137   0.145   0.145   0.143   0.140   0.143   0.142   0.140   0.141   0.145   0.143   0.147   0.142   0.145   0.145   0.142   0.143   0.144   0.137   0.138   0.140   0.144   0.147   0.146   0.148   0.144   0.148   0.153   0.150   0.153   0.146   0.145   0.143   0.147   0.144   0.141   0.141   0.144   0.144   0.148   0.143   0.144   0.147   0.143   0.148   0.144   0.143   0.148   0.150   0.148   0.150   0.143   0.141   0.144   0.143   0.148   0.150   0.149   0.146   0.143   0.141   0.146   0.147   0.148   0.148   0.143   0.143   0.140   0.145   0.143   0.142   0.141   0.141   0.144   0.148   0.148   0.149   0.145   0.143   0.144   0.145   0.141   0.141   0.144   0.146   0.145   0.142   0.141   0.143   0.140   0.138   0.142   0.145   0.143   0.143   0.145   0.144   0.145   0.147   0.145   0.143   0.145   0.140   0.143   0.142   0.141   0.143   0.143   0.143   0.140   0.137   0.136   0.142   0.138   0.138   0.139   0.139   0.140   0.145   0.140   0.142   0.146   0.147   0.143   0.142   0.145   0.143   0.140   0.138   0.138   0.137   0.137   0.138   0.135   0.137   0.137
    38.20    0.139   0.140   0.139   0.133   0.140   0.139   0.143   0.142   0.141   0.137   0.137   0.136   0.139   0.133   0.133   0.138   0.141   0.133   0.136   0.138   0.143   0.141   0.133   0.133   0.142   0.137   0.139   0.140   0.141   0.139   0.133   0.135   0.140   0.135   0.132   0.136   0.138   0.143   0.144   0.150   0.145   0.140   0.141   0.136   0.140   0.141   0.142   0.138   0.142   0.139   0.138   0.137   0.136   0.138   0.143   0.146   0.145   0.142   0.149   0.144   0.137   0.137   0.140   0.142   0.144   0.145   0.149   0.150   0.151   0.146   0.143   0.137   0.142   0.143   0.141   0.137   0.138   0.140   0.144   0.145   0.143   0.145   0.141   0.147   0.150   0.147   0.150   0.146   0.150   0.148   0.142   0.141   0.141   0.142   0.143   0.142   0.145   0.150   0.144   0.142   0.145   0.143   0.145   0.144   0.146   0.151   0.149   0.151   0.146   0.140   0.143   0.148   0.147   0.150   0.146   0.146   0.145   0.141   0.140   0.142   0.147   0.146   0.145   0.148   0.145   0.143   0.145   0.141   0.145   0.139   0.143   0.148   0.145   0.143   0.141   0.145   0.147   0.144   0.144   0.139   0.140   0.149   0.146   0.144   0.140   0.139   0.143   0.144   0.139   0.140   0.140   0.143   0.142   0.142   0.143   0.144   0.145   0.146   0.143   0.142   0.143   0.146   0.146   0.140   0.142   0.141   0.137   0.134   0.135   0.137   0.139   0.141   0.136   0.138   0.140   0.139   0.144   0.143   0.144   0.145   0.147   0.144   0.146   0.147   0.139   0.140   0.139   0.137   0.136   0.139   0.142   0.137   0.136
    28.90    0.143   0.145   0.135   0.135   0.135   0.136   0.138   0.143   0.142   0.137   0.137   0.136   0.134   0.133   0.132   0.134   0.140   0.143   0.145   0.142   0.138   0.138   0.133   0.135   0.133   0.141   0.139   0.138   0.142   0.138   0.141   0.135   0.133   0.137   0.136   0.138   0.133   0.139   0.140   0.149   0.147   0.141   0.141   0.137   0.137   0.135   0.140   0.144   0.139   0.142   0.140   0.135   0.138   0.137   0.142   0.146   0.147   0.139   0.145   0.142   0.143   0.139   0.141   0.135   0.139   0.148   0.150   0.146   0.147   0.146   0.143   0.143   0.140   0.138   0.140   0.143   0.141   0.141   0.140   0.144   0.142   0.142   0.143   0.145   0.145   0.147   0.145   0.144   0.143   0.147   0.141   0.142   0.146   0.148   0.148   0.148   0.149   0.146   0.146   0.141   0.142   0.147   0.145   0.147   0.150   0.153   0.154   0.152   0.142   0.144   0.142   0.149   0.147   0.150   0.147   0.144   0.144   0.140   0.141   0.144   0.146   0.147   0.145   0.145   0.145   0.142   0.141   0.145   0.144   0.141   0.140   0.147   0.142   0.146   0.146   0.146   0.148   0.147   0.140   0.140   0.142   0.147   0.146   0.144   0.147   0.146   0.138   0.139   0.138   0.144   0.144   0.148   0.144   0.143   0.142   0.143   0.146   0.143   0.143   0.141   0.145   0.145   0.145   0.140   0.133   0.139   0.137   0.137   0.137   0.136   0.145   0.145   0.144   0.140   0.143   0.142   0.141   0.145   0.141   0.144   0.143   0.142   0.144   0.143   0.138   0.143   0.139   0.135   0.135   0.139   0.142   0.138   0.135
    19.60    0.142   0.138   0.139   0.138   0.137   0.140   0.144   0.143   0.140   0.136   0.138   0.132   0.134   0.133   0.136   0.138   0.138   0.138   0.143   0.144   0.141   0.137   0.133   0.137   0.140   0.143   0.139   0.144   0.144   0.142   0.137   0.137   0.137   0.141   0.140   0.136   0.136   0.140   0.142   0.149   0.151   0.147   0.136   0.141   0.142   0.139   0.138   0.139   0.138   0.146   0.137   0.137   0.139   0.139   0.142   0.142   0.143   0.143   0.146   0.146   0.139   0.139   0.136   0.137   0.141   0.143   0.144   0.147   0.143   0.145   0.148   0.147   0.147   0.142   0.148   0.146   0.144   0.143   0.140   0.138   0.139   0.141   0.142   0.143   0.139   0.140   0.141   0.142   0.145   0.147   0.143   0.141   0.146   0.148   0.143   0.147   0.143   0.138   0.146   0.142   0.141   0.148   0.144   0.145   0.148   0.147   0.155   0.157   0.148   0.149   0.147   0.149   0.150   0.151   0.148   0.145   0.143   0.139   0.139   0.147   0.149   0.146   0.143   0.141   0.144   0.143   0.147   0.146   0.144   0.145   0.139   0.146   0.147   0.143   0.143   0.147   0.146   0.145   0.141   0.141   0.144   0.144   0.141   0.148   0.146   0.147   0.144   0.139   0.144   0.140   0.146   0.148   0.146   0.144   0.142   0.148   0.145   0.142   0.142   0.148   0.141   0.148   0.143   0.137   0.136   0.135   0.136   0.139   0.131   0.133   0.139   0.141   0.139   0.140   0.138   0.139   0.143   0.141   0.140   0.149   0.147   0.141   0.144   0.143   0.142   0.145   0.140   0.139   0.136   0.136   0.139   0.135   0.140
    10.30    0.142   0.146   0.143   0.143   0.139   0.139   0.141   0.142   0.139   0.131   0.136   0.134   0.135   0.135   0.133   0.140   0.140   0.139   0.137   0.140   0.138   0.145   0.140   0.143   0.140   0.142   0.141   0.143   0.142   0.143   0.144   0.142   0.138   0.141   0.138   0.139   0.143   0.142   0.144   0.146   0.146   0.141   0.138   0.139   0.138   0.138   0.143   0.140   0.141   0.139   0.136   0.138   0.134   0.141   0.145   0.142   0.144   0.142   0.144   0.146   0.135   0.137   0.134   0.136   0.137   0.137   0.143   0.143   0.141   0.147   0.149   0.151   0.149   0.147   0.146   0.148   0.143   0.143   0.142   0.139   0.137   0.142   0.144   0.143   0.140   0.140   0.137   0.144   0.143   0.144   0.143   0.143   0.143   0.143   0.143   0.142   0.143   0.133   0.138   0.138   0.144   0.145   0.143   0.146   0.143   0.150   0.158   0.156   0.151   0.148   0.146   0.147   0.145   0.144   0.145   0.146   0.142   0.144   0.143   0.144   0.150   0.147   0.145   0.140   0.141   0.149   0.143   0.148   0.143   0.141   0.146   0.144   0.140   0.142   0.140   0.141   0.140   0.140   0.136   0.139   0.140   0.143   0.140   0.145   0.142   0.149   0.146   0.142   0.142   0.140   0.146   0.148   0.147   0.145   0.145   0.149   0.144   0.138   0.139   0.145   0.148   0.143   0.142   0.139   0.135   0.135   0.139   0.141   0.134   0.136   0.135   0.135   0.140   0.143   0.140   0.140   0.145   0.144   0.141   0.142   0.145   0.142   0.145   0.141   0.143   0.144   0.144   0.139   0.138   0.138   0.138   0.139   0.140
     1.00    0.142   0.142   0.141   0.140   0.138   0.137   0.140   0.136   0.138   0.141   0.137   0.139   0.138   0.140   0.136   0.136   0.141   0.137   0.138   0.143   0.142   0.137   0.141   0.142   0.143   0.142   0.142   0.143   0.145   0.142   0.143   0.141   0.141   0.144   0.141   0.139   0.143   0.146   0.144   0.148   0.139   0.138   0.136   0.138   0.138   0.139   0.137   0.139   0.139   0.139   0.138   0.139   0.141   0.141   0.141   0.142   0.141   0.143   0.143   0.147   0.143   0.140   0.139   0.138   0.139   0.139   0.140   0.140   0.140   0.144   0.149   0.146   0.150   0.148   0.148   0.143   0.142   0.142   0.143   0.145   0.137   0.141   0.140   0.143   0.145   0.146   0.139   0.141   0.143   0.137   0.142   0.142   0.141   0.140   0.140   0.142   0.140   0.145   0.140   0.136   0.143   0.143   0.145   0.149   0.149   0.150   0.150   0.151   0.149   0.151   0.148   0.148   0.145   0.144   0.145   0.141   0.147   0.145   0.145   0.149   0.148   0.148   0.144   0.140   0.143   0.146   0.147   0.144   0.147   0.142   0.146   0.143   0.138   0.140   0.138   0.136   0.134   0.139   0.136   0.138   0.136   0.141   0.145   0.144   0.141   0.144   0.146   0.148   0.147   0.145   0.144   0.149   0.149   0.148   0.149   0.148   0.143   0.143   0.143   0.142   0.144   0.142   0.140   0.140   0.139   0.135   0.133   0.134   0.138   0.136   0.138   0.139   0.135   0.137   0.141   0.144   0.143   0.142   0.140   0.143   0.143   0.147   0.149   0.144   0.139   0.144   0.138   0.142   0.137   0.139   0.141   0.137   0.137

   Mean standard deviation across all grid points:
      u component:    0.276 m/s
      v component:    0.234 m/s
      w component:    0.142 m/s


U-component (X) statistics from the interpolated hub point:

   Mean =   9.7063 m/s
   TI   =   2.6501 %


Processing complete.  2.13694E+05 CPU seconds used.
