
This summary file was generated by TurbSim (from OpenFAST-v3.5.3) on 19-Apr-2025 at 19:42:29.


Runtime Options:

 916078875  Random seed #1
    RANLUX  Type of random number generator
         F  Output binary HH turbulence parameters?
         F  Output formatted turbulence parameters?
         F  Output AeroDyn HH files?
         T  Output AeroDyn FF files?
         F  Output BLADED FF files?
         F  Output tower data?
         F  Output HAWC FF files?
         F  Output formatted FF files?
         T  Output coherent turbulence time step file?
 0 -  NONE  IEC turbulence models scaled to exact specified standard deviation


Turbine/Model Specifications:

        39  Vertical grid-point matrix dimension
       193  Horizontal grid-point matrix dimension
     0.250  Time step [seconds]
   900.000  Analysis time [seconds]
   900.000  Usable output time [seconds]
   177.700  Hub height [m]
   353.400  Grid height [m]
  1785.600  Grid width [m]
     0.000  Vertical flow angle [degrees]
     0.000  Horizontal flow angle [degrees]


Meteorological Boundary Conditions:

    IECKAI  IEC Kaimal spectral model
         1  IEC standard: IEC 61400-1 Ed. 3: 2005
     4.000  Percent turbulence intensity, IEC 61400-1 Ed. 3: 2005
       NTM  IEC Normal Turbulence Model
       N/A  IEC Extreme Turbulence Model (ETM) "c" parameter [m/s]
       USR  Wind profile type
    90.000  Reference height [m]
       N/A  Reference wind speed [m/s]
       N/A  Jet height [m]
       N/A  Power law exponent
     0.030  Surface roughness length [m]


Non-IEC Meteorological Boundary Conditions:

       N/A  Site latitude [degrees]
       N/A  Gradient Richardson number
       N/A  Friction or shear velocity [m/s]
       N/A  Mixing layer depth [m]
       N/A  Mean hub u'w' Reynolds stress
       N/A  Mean hub u'v' Reynolds stress
       N/A  Mean hub v'w' Reynolds stress


Spatial Coherence Models:

       IEC  u-component coherence model
       IEC  v-component coherence model
       IEC  w-component coherence model
(   12.000, 0.353E-03)  u-component coherence parameters
(   12.000, 0.353E-03)  v-component coherence parameters
(   12.000, 0.353E-03)  w-component coherence parameters
       N/A  Coherence exponent


User-Defined Profiles:

  Height   Wind Speed   Horizontal Angle
   (m)        (m/s)          (deg)      
  ------   ----------   ----------------
  353.40      10.00         318.19
  334.80      10.00         321.14
  316.20      10.00         324.10
  297.60      10.00         327.05
  279.00      10.00         330.00
  260.40      10.00         332.95
  241.80      10.00         335.90
  223.20      10.00         338.86
  204.60      10.00         341.81
  186.00      10.00         344.76
  167.40      10.00         347.71
  148.80      10.00         350.67
  130.20      10.00         353.62
  111.60      10.00         356.57
   93.00      10.00         359.52
   74.40      10.00           2.48
   55.80      10.00           5.43
   37.20      10.00           8.38
   18.60      10.00          11.33
    0.00      10.00          14.29


You have requested that the following file(s) be generated:

   /kfs3/scratch/agupta/Projects/RL_Incubator/FinalRuns_Veer/Seed4/./FFSim_Seed4/Cond00_v10.0_PL0.12_TI4.0/Seed_0/Low.bts (AeroDyn/TurbSim full-field wind file)


Turbulence Simulation Scaling Parameter Summary:

   Turbulence model used                            =  IEC Kaimal
   Turbulence characteristic                        =  User-specified
   IEC standard                                     =  IEC 61400-1 Ed. 3: 2005
   Mean wind speed at hub height                    =   10.000 m/s
   Characteristic value of standard deviation       =    0.400 m/s
   Turbulence scale                                 =   42.000 m
   u-component integral scale                       =  340.200 m
   Coherency scale                                  =  340.200 m
   Characteristic value of hub turbulence intensity =    4.000%
   Gradient Richardson number                       =    0.000

   Wind profile type                                =  Linear interpolation of user-defined profile
   Equivalent power law exponent (upper rotor disk) =    0.000
   Mean shear across rotor disk                     =    0.000 (m/s)/m
   Assumed rotor diameter                           =  353.400 m
   Surface roughness length                         =    0.030 m

   Nyquist frequency of turbulent wind field        =    2.000 Hz

   Number of time steps in the FFT                  =     3600
   Number of time steps output                      =     3600
   Number of points simulated                       =     7527


Mean Flow Angles:

   Vertical   =   0.0 degrees
   Horizontal =   0.0 degrees

Mean Wind Speed Profile:

   Height    Wind Speed   Horizontal Angle  Vertical Angle  U-comp (X)   V-comp (Y)   W-comp (Z)
     (m)        (m/s)         (degrees)       (degrees)       (m/s)        (m/s)        (m/s)   
   ------    ----------   ----------------  --------------  ----------   ----------   ----------
    354.4       10.00          318.19            0.00          7.45        -6.67         0.00
    345.1       10.00          319.51            0.00          7.60        -6.49         0.00
    335.8       10.00          320.98            0.00          7.77        -6.30         0.00
    326.5       10.00          322.46            0.00          7.93        -6.09         0.00
    317.2       10.00          323.94            0.00          8.08        -5.89         0.00
    307.9       10.00          325.41            0.00          8.23        -5.68         0.00
    298.6       10.00          326.89            0.00          8.38        -5.46         0.00
    289.3       10.00          328.37            0.00          8.51        -5.25         0.00
    280.0       10.00          329.84            0.00          8.65        -5.02         0.00
    270.7       10.00          331.32            0.00          8.77        -4.80         0.00
    261.4       10.00          332.79            0.00          8.89        -4.57         0.00
    252.1       10.00          334.27            0.00          9.01        -4.34         0.00
    242.8       10.00          335.75            0.00          9.12        -4.11         0.00
    233.5       10.00          337.22            0.00          9.22        -3.87         0.00
    224.2       10.00          338.70            0.00          9.32        -3.63         0.00
    214.9       10.00          340.17            0.00          9.41        -3.39         0.00
    205.6       10.00          341.65            0.00          9.49        -3.15         0.00
    196.3       10.00          343.13            0.00          9.57        -2.90         0.00
    187.0       10.00          344.60            0.00          9.64        -2.66         0.00
    177.7       10.00          346.08            0.00          9.71        -2.41         0.00
    168.4       10.00          347.56            0.00          9.77        -2.15         0.00
    159.1       10.00          349.03            0.00          9.82        -1.90         0.00
    149.8       10.00          350.51            0.00          9.86        -1.65         0.00
    140.5       10.00          351.98            0.00          9.90        -1.39         0.00
    131.2       10.00          353.46            0.00          9.93        -1.14         0.00
    121.9       10.00          354.94            0.00          9.96        -0.88         0.00
    112.6       10.00          356.41            0.00          9.98        -0.63         0.00
    103.3       10.00          357.89            0.00          9.99        -0.37         0.00
     94.0       10.00          359.37            0.00         10.00        -0.11         0.00
     84.7       10.00          360.84            0.00         10.00         0.15         0.00
     75.4       10.00          362.32            0.00          9.99         0.40         0.00
     66.1       10.00            3.79            0.00          9.98         0.66         0.00
     56.8       10.00            5.27            0.00          9.96         0.92         0.00
     47.5       10.00            6.75            0.00          9.93         1.17         0.00
     38.2       10.00            8.22            0.00          9.90         1.43         0.00
     28.9       10.00            9.70            0.00          9.86         1.68         0.00
     19.6       10.00           11.17            0.00          9.81         1.94         0.00
     10.3       10.00           12.65            0.00          9.76         2.19         0.00
      1.0       10.00           14.13            0.00          9.70         2.44         0.00


Harvested Random Seeds after Generation of the Random Numbers:

    377667225 K 1
            0 K 2


Hub-Height Simulated Turbulence Statistical Summary:

   Type of Wind        Min (m/s)   Mean (m/s)    Max (m/s)  Sigma (m/s)       TI (%)
   ----------------    ---------   ----------    ---------  -----------       ------
   Longitudinal (u)         8.72        10.00        11.38        0.434        4.339
   Lateral (v)             -0.97        -0.00         1.08        0.295        2.947
   Vertical (w)            -0.63        -0.00         0.70        0.185        1.851
   U component              8.44         9.71        11.12        0.429        4.423
   V component             -3.44        -2.41        -1.44        0.301        3.105
   W component             -0.63        -0.00         0.70        0.185        1.907
   Horizontal (U&V)         8.72        10.00        11.38        0.434        4.341
   Total                    8.72        10.01        11.40        0.434        4.339

                       Min Reynolds     Mean Reynolds    Max Reynolds    Correlation
   Product             Stress (m/s)^2   Stress (m/s)^2   Stress (m/s)^2  Coefficient
   ----------------    --------------   --------------   --------------  -----------
   u'w'                     -0.732            -0.002             0.415        -0.021
   u'v'                     -0.540             0.004             0.634         0.032
   v'w'                     -0.285             0.004             0.436         0.070


   Friction Velocity (Ustar)  =      0.041 m/s
   Maximum Instantaneous TKE  =      1.135 (m/s)^2
   Maximum Instantaneous CTKE =      0.423 (m/s)^2


Grid Point Variance Summary:

   Y-coord -892.80 -883.50 -874.20 -864.90 -855.60 -846.30 -837.00 -827.70 -818.40 -809.10 -799.80 -790.50 -781.20 -771.90 -762.60 -753.30 -744.00 -734.70 -725.40 -716.10 -706.80 -697.50 -688.20 -678.90 -669.60 -660.30 -651.00 -641.70 -632.40 -623.10 -613.80 -604.50 -595.20 -585.90 -576.60 -567.30 -558.00 -548.70 -539.40 -530.10 -520.80 -511.50 -502.20 -492.90 -483.60 -474.30 -465.00 -455.70 -446.40 -437.10 -427.80 -418.50 -409.20 -399.90 -390.60 -381.30 -372.00 -362.70 -353.40 -344.10 -334.80 -325.50 -316.20 -306.90 -297.60 -288.30 -279.00 -269.70 -260.40 -251.10 -241.80 -232.50 -223.20 -213.90 -204.60 -195.30 -186.00 -176.70 -167.40 -158.10 -148.80 -139.50 -130.20 -120.90 -111.60 -102.30  -93.00  -83.70  -74.40  -65.10  -55.80  -46.50  -37.20  -27.90  -18.60   -9.30    0.00    9.30   18.60   27.90   37.20   46.50   55.80   65.10   74.40   83.70   93.00  102.30  111.60  120.90  130.20  139.50  148.80  158.10  167.40  176.70  186.00  195.30  204.60  213.90  223.20  232.50  241.80  251.10  260.40  269.70  279.00  288.30  297.60  306.90  316.20  325.50  334.80  344.10  353.40  362.70  372.00  381.30  390.60  399.90  409.20  418.50  427.80  437.10  446.40  455.70  465.00  474.30  483.60  492.90  502.20  511.50  520.80  530.10  539.40  548.70  558.00  567.30  576.60  585.90  595.20  604.50  613.80  623.10  632.40  641.70  651.00  660.30  669.60  678.90  688.20  697.50  706.80  716.10  725.40  734.70  744.00  753.30  762.60  771.90  781.20  790.50  799.80  809.10  818.40  827.70  837.00  846.30  855.60  864.90  874.20  883.50  892.80

   Height   Standard deviation at grid points for the u component:
   354.40    0.426   0.400   0.393   0.376   0.379   0.352   0.368   0.355   0.339   0.336   0.332   0.309   0.336   0.348   0.383   0.377   0.385   0.394   0.412   0.413   0.428   0.406   0.413   0.390   0.362   0.365   0.352   0.345   0.363   0.379   0.410   0.405   0.394   0.397   0.395   0.424   0.420   0.401   0.417   0.412   0.412   0.387   0.404   0.399   0.359   0.351   0.361   0.365   0.374   0.400   0.392   0.371   0.365   0.361   0.361   0.352   0.343   0.343   0.314   0.320   0.333   0.357   0.353   0.370   0.372   0.377   0.394   0.365   0.372   0.418   0.421   0.396   0.390   0.382   0.363   0.402   0.423   0.401   0.387   0.390   0.382   0.391   0.396   0.401   0.386   0.393   0.380   0.375   0.365   0.366   0.373   0.408   0.401   0.449   0.407   0.393   0.421   0.386   0.400   0.408   0.420   0.424   0.387   0.387   0.402   0.392   0.436   0.419   0.407   0.423   0.414   0.410   0.395   0.393   0.408   0.410   0.455   0.472   0.453   0.384   0.396   0.363   0.350   0.351   0.357   0.359   0.373   0.363   0.345   0.360   0.378   0.376   0.378   0.368   0.346   0.326   0.342   0.386   0.393   0.388   0.402   0.385   0.379   0.383   0.354   0.326   0.325   0.316   0.311   0.338   0.373   0.381   0.382   0.377   0.398   0.412   0.412   0.395   0.372   0.406   0.399   0.379   0.346   0.343   0.361   0.376   0.363   0.356   0.335   0.356   0.360   0.349   0.337   0.348   0.352   0.323   0.333   0.356   0.345   0.334   0.313   0.337   0.339   0.382   0.393   0.394   0.364   0.364   0.391   0.378   0.377   0.360   0.348
   345.10    0.399   0.384   0.408   0.391   0.384   0.342   0.352   0.357   0.331   0.322   0.337   0.336   0.346   0.360   0.374   0.371   0.372   0.392   0.413   0.432   0.444   0.413   0.399   0.401   0.372   0.354   0.338   0.335   0.358   0.391   0.410   0.398   0.386   0.390   0.390   0.425   0.422   0.402   0.413   0.401   0.428   0.397   0.404   0.385   0.343   0.363   0.347   0.352   0.365   0.393   0.410   0.376   0.385   0.386   0.375   0.337   0.342   0.340   0.329   0.312   0.340   0.352   0.360   0.355   0.358   0.359   0.383   0.387   0.404   0.426   0.426   0.406   0.404   0.381   0.367   0.390   0.429   0.429   0.408   0.385   0.387   0.370   0.378   0.412   0.416   0.396   0.391   0.367   0.380   0.383   0.348   0.383   0.401   0.422   0.421   0.407   0.415   0.378   0.404   0.427   0.448   0.431   0.396   0.421   0.419   0.413   0.416   0.419   0.413   0.410   0.434   0.406   0.380   0.394   0.411   0.424   0.439   0.458   0.452   0.416   0.386   0.355   0.361   0.351   0.351   0.376   0.386   0.366   0.357   0.339   0.352   0.355   0.336   0.360   0.337   0.310   0.359   0.373   0.400   0.379   0.374   0.383   0.371   0.374   0.341   0.328   0.310   0.325   0.338   0.348   0.358   0.363   0.362   0.377   0.419   0.423   0.425   0.420   0.418   0.442   0.402   0.358   0.360   0.331   0.343   0.357   0.351   0.346   0.311   0.333   0.342   0.354   0.331   0.344   0.356   0.360   0.355   0.350   0.361   0.338   0.337   0.356   0.371   0.384   0.401   0.387   0.394   0.362   0.390   0.395   0.404   0.394   0.401
   335.80    0.375   0.380   0.401   0.375   0.363   0.322   0.305   0.349   0.324   0.291   0.293   0.297   0.336   0.351   0.356   0.382   0.395   0.393   0.411   0.385   0.394   0.395   0.383   0.368   0.369   0.351   0.323   0.324   0.344   0.367   0.387   0.401   0.380   0.369   0.382   0.391   0.409   0.413   0.380   0.414   0.403   0.412   0.405   0.413   0.386   0.380   0.369   0.352   0.377   0.410   0.396   0.407   0.397   0.392   0.356   0.359   0.359   0.341   0.332   0.360   0.337   0.326   0.328   0.354   0.361   0.362   0.392   0.389   0.419   0.434   0.449   0.409   0.392   0.366   0.392   0.411   0.395   0.414   0.401   0.393   0.420   0.399   0.425   0.411   0.410   0.394   0.383   0.366   0.364   0.365   0.355   0.360   0.371   0.379   0.396   0.391   0.388   0.372   0.403   0.414   0.411   0.433   0.419   0.401   0.417   0.410   0.413   0.424   0.423   0.418   0.424   0.399   0.356   0.371   0.392   0.398   0.422   0.405   0.426   0.382   0.380   0.374   0.348   0.357   0.361   0.361   0.359   0.363   0.359   0.347   0.347   0.325   0.329   0.336   0.330   0.335   0.360   0.371   0.380   0.387   0.352   0.345   0.345   0.358   0.357   0.337   0.349   0.348   0.377   0.351   0.367   0.385   0.369   0.411   0.433   0.435   0.441   0.450   0.474   0.437   0.399   0.409   0.366   0.330   0.338   0.334   0.336   0.332   0.321   0.332   0.351   0.337   0.346   0.366   0.365   0.393   0.367   0.350   0.357   0.353   0.353   0.360   0.383   0.372   0.393   0.398   0.361   0.366   0.386   0.384   0.375   0.389   0.387
   326.50    0.390   0.380   0.382   0.376   0.349   0.313   0.321   0.347   0.357   0.334   0.313   0.314   0.347   0.332   0.335   0.351   0.373   0.392   0.390   0.377   0.380   0.368   0.372   0.394   0.369   0.348   0.338   0.319   0.334   0.359   0.359   0.384   0.370   0.382   0.406   0.411   0.403   0.402   0.386   0.418   0.405   0.388   0.395   0.384   0.386   0.383   0.355   0.353   0.385   0.418   0.409   0.392   0.389   0.386   0.381   0.347   0.349   0.337   0.329   0.339   0.332   0.333   0.315   0.350   0.351   0.383   0.394   0.386   0.413   0.416   0.434   0.399   0.387   0.371   0.382   0.385   0.406   0.417   0.433   0.432   0.428   0.416   0.433   0.412   0.420   0.386   0.367   0.396   0.402   0.379   0.347   0.355   0.354   0.377   0.389   0.396   0.401   0.371   0.362   0.388   0.393   0.407   0.387   0.382   0.392   0.404   0.404   0.410   0.431   0.412   0.389   0.382   0.356   0.398   0.391   0.425   0.424   0.416   0.400   0.391   0.372   0.386   0.351   0.343   0.349   0.353   0.358   0.339   0.345   0.345   0.338   0.346   0.323   0.330   0.333   0.361   0.356   0.359   0.370   0.365   0.340   0.343   0.338   0.339   0.352   0.339   0.355   0.366   0.335   0.366   0.364   0.403   0.386   0.395   0.440   0.398   0.396   0.379   0.427   0.432   0.406   0.399   0.356   0.335   0.307   0.323   0.314   0.309   0.307   0.336   0.348   0.354   0.370   0.354   0.378   0.379   0.399   0.358   0.347   0.369   0.373   0.374   0.392   0.383   0.392   0.383   0.362   0.356   0.410   0.383   0.390   0.412   0.414
   317.20    0.372   0.362   0.366   0.356   0.332   0.314   0.321   0.319   0.326   0.348   0.304   0.312   0.330   0.314   0.335   0.333   0.387   0.404   0.419   0.400   0.393   0.390   0.399   0.384   0.378   0.365   0.343   0.331   0.340   0.355   0.368   0.414   0.389   0.381   0.386   0.398   0.383   0.390   0.397   0.393   0.406   0.390   0.397   0.410   0.393   0.370   0.347   0.354   0.368   0.392   0.402   0.419   0.398   0.374   0.371   0.356   0.343   0.320   0.324   0.328   0.334   0.334   0.326   0.349   0.351   0.356   0.375   0.410   0.389   0.389   0.387   0.390   0.375   0.411   0.393   0.402   0.400   0.417   0.447   0.481   0.483   0.464   0.446   0.423   0.419   0.417   0.389   0.388   0.398   0.396   0.316   0.324   0.342   0.365   0.396   0.386   0.383   0.359   0.392   0.394   0.419   0.435   0.404   0.394   0.361   0.384   0.378   0.423   0.416   0.390   0.363   0.341   0.365   0.366   0.405   0.402   0.419   0.407   0.383   0.383   0.397   0.380   0.366   0.349   0.342   0.347   0.364   0.348   0.336   0.321   0.330   0.357   0.318   0.337   0.360   0.359   0.363   0.344   0.350   0.352   0.354   0.324   0.316   0.312   0.326   0.352   0.359   0.349   0.349   0.364   0.368   0.380   0.389   0.386   0.396   0.392   0.371   0.395   0.409   0.408   0.399   0.377   0.357   0.331   0.347   0.341   0.311   0.302   0.321   0.348   0.359   0.342   0.361   0.357   0.369   0.375   0.366   0.363   0.357   0.408   0.376   0.380   0.373   0.390   0.372   0.335   0.350   0.360   0.375   0.407   0.394   0.412   0.405
   307.90    0.376   0.374   0.351   0.357   0.317   0.307   0.339   0.336   0.364   0.336   0.336   0.335   0.330   0.330   0.322   0.352   0.374   0.405   0.409   0.382   0.368   0.364   0.364   0.367   0.372   0.392   0.369   0.337   0.338   0.353   0.378   0.385   0.386   0.356   0.377   0.369   0.395   0.391   0.400   0.368   0.411   0.421   0.394   0.404   0.397   0.377   0.368   0.354   0.368   0.388   0.399   0.413   0.375   0.348   0.342   0.342   0.336   0.345   0.331   0.356   0.347   0.355   0.358   0.355   0.331   0.344   0.367   0.405   0.394   0.400   0.411   0.383   0.384   0.379   0.388   0.412   0.406   0.435   0.441   0.466   0.485   0.478   0.431   0.418   0.392   0.377   0.345   0.356   0.377   0.362   0.325   0.356   0.343   0.349   0.351   0.355   0.368   0.392   0.404   0.417   0.423   0.393   0.384   0.373   0.380   0.373   0.426   0.389   0.386   0.389   0.351   0.349   0.341   0.367   0.421   0.408   0.421   0.396   0.371   0.364   0.368   0.370   0.375   0.354   0.331   0.329   0.365   0.372   0.330   0.367   0.336   0.310   0.325   0.349   0.351   0.337   0.348   0.342   0.344   0.337   0.350   0.345   0.306   0.319   0.335   0.340   0.339   0.338   0.370   0.370   0.365   0.358   0.367   0.347   0.377   0.392   0.381   0.374   0.377   0.378   0.388   0.371   0.394   0.369   0.365   0.364   0.352   0.350   0.358   0.352   0.388   0.392   0.387   0.397   0.366   0.393   0.391   0.384   0.396   0.392   0.414   0.396   0.393   0.406   0.381   0.356   0.347   0.357   0.390   0.397   0.419   0.410   0.403
   298.60    0.394   0.384   0.373   0.374   0.349   0.345   0.317   0.352   0.343   0.333   0.354   0.364   0.340   0.320   0.348   0.357   0.378   0.390   0.375   0.373   0.374   0.368   0.377   0.400   0.378   0.389   0.372   0.355   0.347   0.340   0.344   0.366   0.363   0.349   0.347   0.350   0.384   0.370   0.375   0.368   0.413   0.419   0.412   0.436   0.431   0.413   0.404   0.369   0.360   0.358   0.363   0.378   0.367   0.336   0.338   0.345   0.353   0.333   0.349   0.370   0.342   0.332   0.335   0.336   0.318   0.339   0.370   0.371   0.390   0.414   0.410   0.422   0.423   0.403   0.388   0.406   0.408   0.396   0.452   0.459   0.481   0.487   0.440   0.435   0.429   0.391   0.373   0.353   0.364   0.360   0.366   0.360   0.345   0.331   0.353   0.356   0.378   0.396   0.430   0.416   0.390   0.374   0.373   0.395   0.385   0.375   0.411   0.403   0.402   0.376   0.374   0.353   0.347   0.371   0.388   0.406   0.378   0.384   0.351   0.390   0.375   0.349   0.348   0.358   0.347   0.357   0.362   0.353   0.343   0.333   0.330   0.332   0.326   0.328   0.328   0.336   0.349   0.340   0.349   0.368   0.346   0.346   0.342   0.319   0.326   0.330   0.322   0.342   0.358   0.355   0.344   0.339   0.335   0.360   0.387   0.365   0.381   0.345   0.350   0.358   0.388   0.368   0.374   0.391   0.376   0.377   0.367   0.383   0.384   0.404   0.426   0.416   0.401   0.393   0.396   0.366   0.388   0.400   0.387   0.416   0.402   0.407   0.422   0.406   0.391   0.384   0.386   0.394   0.405   0.432   0.432   0.409   0.419
   289.30    0.369   0.372   0.350   0.337   0.326   0.341   0.318   0.337   0.349   0.345   0.345   0.368   0.356   0.328   0.348   0.377   0.386   0.391   0.367   0.369   0.373   0.361   0.383   0.377   0.361   0.365   0.383   0.368   0.349   0.334   0.336   0.350   0.340   0.325   0.325   0.345   0.362   0.366   0.379   0.405   0.387   0.384   0.415   0.427   0.417   0.412   0.384   0.372   0.361   0.338   0.362   0.377   0.352   0.325   0.294   0.311   0.307   0.328   0.334   0.335   0.345   0.337   0.323   0.323   0.341   0.338   0.343   0.371   0.366   0.407   0.391   0.425   0.414   0.407   0.408   0.400   0.395   0.392   0.435   0.476   0.470   0.476   0.468   0.441   0.414   0.414   0.380   0.371   0.383   0.383   0.372   0.382   0.364   0.342   0.325   0.356   0.371   0.400   0.431   0.418   0.402   0.374   0.362   0.355   0.371   0.387   0.386   0.411   0.421   0.375   0.389   0.396   0.361   0.366   0.381   0.397   0.390   0.372   0.381   0.393   0.385   0.339   0.346   0.351   0.364   0.374   0.357   0.337   0.351   0.322   0.326   0.332   0.306   0.292   0.300   0.326   0.346   0.346   0.351   0.342   0.333   0.328   0.328   0.316   0.330   0.325   0.331   0.332   0.330   0.333   0.328   0.328   0.357   0.358   0.396   0.384   0.379   0.369   0.361   0.347   0.351   0.346   0.369   0.385   0.383   0.385   0.390   0.376   0.408   0.442   0.446   0.429   0.429   0.411   0.390   0.413   0.405   0.386   0.426   0.428   0.416   0.396   0.396   0.419   0.417   0.422   0.402   0.403   0.415   0.445   0.446   0.407   0.406
   280.00    0.338   0.373   0.356   0.353   0.344   0.335   0.349   0.327   0.336   0.350   0.342   0.356   0.342   0.365   0.368   0.384   0.388   0.372   0.363   0.392   0.386   0.361   0.371   0.372   0.372   0.355   0.367   0.372   0.348   0.321   0.327   0.345   0.373   0.336   0.326   0.347   0.338   0.364   0.378   0.401   0.415   0.405   0.397   0.418   0.393   0.410   0.402   0.387   0.375   0.340   0.355   0.342   0.320   0.299   0.293   0.301   0.313   0.326   0.344   0.346   0.333   0.330   0.307   0.319   0.327   0.333   0.347   0.347   0.372   0.384   0.385   0.398   0.407   0.392   0.409   0.399   0.422   0.391   0.405   0.454   0.480   0.481   0.446   0.422   0.400   0.398   0.388   0.380   0.390   0.392   0.376   0.389   0.393   0.350   0.335   0.341   0.370   0.388   0.416   0.431   0.381   0.353   0.350   0.375   0.367   0.367   0.374   0.374   0.400   0.375   0.390   0.371   0.364   0.352   0.373   0.390   0.387   0.376   0.406   0.405   0.401   0.354   0.349   0.334   0.361   0.350   0.361   0.337   0.336   0.347   0.351   0.321   0.303   0.298   0.298   0.306   0.351   0.353   0.341   0.344   0.361   0.359   0.341   0.351   0.337   0.346   0.346   0.346   0.341   0.318   0.344   0.343   0.355   0.369   0.392   0.372   0.387   0.380   0.360   0.368   0.353   0.365   0.365   0.367   0.372   0.360   0.353   0.377   0.410   0.438   0.442   0.413   0.434   0.439   0.416   0.427   0.404   0.410   0.431   0.405   0.451   0.421   0.413   0.412   0.401   0.404   0.408   0.420   0.409   0.433   0.409   0.388   0.423
   270.70    0.348   0.374   0.351   0.366   0.380   0.361   0.364   0.352   0.346   0.365   0.337   0.362   0.353   0.348   0.370   0.356   0.399   0.383   0.398   0.378   0.389   0.366   0.355   0.384   0.354   0.358   0.359   0.338   0.347   0.332   0.310   0.344   0.363   0.363   0.354   0.354   0.376   0.374   0.356   0.383   0.413   0.407   0.399   0.383   0.403   0.406   0.385   0.364   0.394   0.359   0.330   0.324   0.350   0.325   0.321   0.308   0.320   0.326   0.353   0.335   0.320   0.316   0.321   0.317   0.324   0.339   0.355   0.355   0.361   0.354   0.371   0.354   0.375   0.394   0.421   0.417   0.429   0.408   0.423   0.429   0.458   0.446   0.430   0.445   0.429   0.419   0.389   0.383   0.378   0.391   0.401   0.402   0.377   0.347   0.345   0.375   0.372   0.379   0.418   0.404   0.370   0.384   0.362   0.362   0.374   0.374   0.369   0.354   0.377   0.374   0.393   0.374   0.368   0.352   0.380   0.398   0.387   0.387   0.389   0.375   0.383   0.333   0.350   0.339   0.357   0.356   0.339   0.335   0.323   0.328   0.318   0.324   0.323   0.306   0.315   0.348   0.354   0.328   0.334   0.334   0.363   0.348   0.354   0.358   0.331   0.349   0.346   0.357   0.335   0.347   0.332   0.355   0.340   0.357   0.382   0.408   0.381   0.363   0.355   0.353   0.359   0.357   0.361   0.367   0.354   0.352   0.344   0.371   0.358   0.408   0.412   0.402   0.424   0.417   0.404   0.428   0.444   0.433   0.452   0.442   0.426   0.398   0.404   0.385   0.362   0.375   0.393   0.399   0.394   0.409   0.411   0.414   0.411
   261.40    0.372   0.388   0.396   0.384   0.395   0.391   0.362   0.360   0.356   0.351   0.352   0.346   0.356   0.351   0.336   0.367   0.378   0.399   0.404   0.387   0.383   0.360   0.350   0.357   0.355   0.330   0.345   0.357   0.332   0.337   0.335   0.359   0.363   0.351   0.353   0.362   0.374   0.390   0.380   0.377   0.392   0.406   0.403   0.420   0.414   0.391   0.380   0.376   0.369   0.367   0.350   0.342   0.336   0.319   0.319   0.298   0.328   0.326   0.352   0.342   0.324   0.323   0.331   0.346   0.324   0.324   0.332   0.332   0.335   0.333   0.354   0.349   0.393   0.396   0.422   0.402   0.407   0.425   0.429   0.424   0.457   0.432   0.417   0.420   0.425   0.399   0.381   0.395   0.383   0.412   0.409   0.416   0.356   0.373   0.373   0.364   0.391   0.399   0.423   0.408   0.391   0.396   0.384   0.364   0.383   0.393   0.391   0.376   0.381   0.375   0.389   0.382   0.356   0.364   0.376   0.348   0.372   0.373   0.378   0.389   0.361   0.351   0.362   0.365   0.368   0.333   0.331   0.317   0.308   0.302   0.316   0.307   0.307   0.300   0.327   0.346   0.348   0.334   0.326   0.350   0.349   0.352   0.360   0.360   0.365   0.365   0.333   0.331   0.357   0.338   0.326   0.350   0.348   0.384   0.412   0.388   0.382   0.355   0.344   0.339   0.352   0.363   0.371   0.367   0.368   0.375   0.353   0.373   0.380   0.354   0.417   0.433   0.417   0.400   0.413   0.428   0.458   0.448   0.456   0.436   0.442   0.411   0.397   0.369   0.380   0.384   0.383   0.364   0.403   0.430   0.403   0.409   0.442
   252.10    0.370   0.380   0.396   0.374   0.385   0.387   0.383   0.360   0.366   0.366   0.326   0.325   0.345   0.330   0.340   0.355   0.350   0.366   0.390   0.397   0.387   0.353   0.360   0.365   0.335   0.337   0.333   0.320   0.324   0.332   0.347   0.350   0.361   0.377   0.364   0.353   0.363   0.362   0.380   0.399   0.378   0.397   0.372   0.421   0.414   0.417   0.396   0.391   0.391   0.368   0.364   0.373   0.344   0.331   0.332   0.319   0.334   0.327   0.322   0.338   0.349   0.324   0.328   0.351   0.328   0.334   0.334   0.330   0.347   0.356   0.342   0.367   0.415   0.416   0.405   0.412   0.422   0.438   0.421   0.441   0.432   0.433   0.427   0.457   0.418   0.396   0.401   0.401   0.400   0.415   0.419   0.401   0.393   0.386   0.362   0.373   0.396   0.382   0.426   0.411   0.410   0.405   0.381   0.346   0.374   0.383   0.389   0.386   0.401   0.385   0.386   0.411   0.372   0.375   0.351   0.353   0.345   0.370   0.353   0.365   0.335   0.325   0.337   0.356   0.362   0.343   0.319   0.310   0.306   0.328   0.363   0.310   0.293   0.299   0.309   0.326   0.337   0.353   0.344   0.354   0.381   0.359   0.354   0.363   0.346   0.341   0.337   0.339   0.349   0.363   0.341   0.344   0.384   0.400   0.404   0.395   0.395   0.354   0.373   0.355   0.342   0.368   0.361   0.381   0.373   0.333   0.352   0.375   0.351   0.350   0.381   0.407   0.395   0.400   0.408   0.433   0.427   0.454   0.465   0.434   0.431   0.417   0.395   0.364   0.354   0.383   0.362   0.335   0.395   0.425   0.427   0.440   0.443
   242.80    0.364   0.344   0.366   0.368   0.402   0.391   0.392   0.386   0.370   0.359   0.348   0.312   0.310   0.299   0.322   0.321   0.344   0.381   0.369   0.363   0.377   0.388   0.375   0.356   0.360   0.340   0.339   0.318   0.327   0.336   0.338   0.360   0.368   0.381   0.378   0.376   0.334   0.382   0.404   0.382   0.388   0.393   0.363   0.409   0.416   0.401   0.406   0.400   0.384   0.401   0.349   0.365   0.354   0.354   0.325   0.333   0.316   0.327   0.304   0.318   0.314   0.318   0.341   0.341   0.335   0.342   0.327   0.324   0.347   0.347   0.360   0.400   0.419   0.402   0.385   0.396   0.417   0.411   0.399   0.418   0.403   0.407   0.436   0.447   0.435   0.408   0.416   0.402   0.415   0.397   0.428   0.424   0.418   0.407   0.395   0.385   0.419   0.443   0.436   0.434   0.430   0.421   0.405   0.393   0.402   0.394   0.375   0.405   0.421   0.421   0.401   0.403   0.391   0.409   0.373   0.380   0.383   0.384   0.365   0.348   0.318   0.308   0.339   0.317   0.354   0.342   0.337   0.334   0.337   0.335   0.352   0.322   0.302   0.297   0.300   0.316   0.344   0.372   0.382   0.385   0.370   0.359   0.354   0.369   0.347   0.347   0.321   0.330   0.342   0.332   0.343   0.347   0.350   0.379   0.394   0.382   0.367   0.343   0.345   0.380   0.380   0.375   0.369   0.393   0.379   0.368   0.341   0.336   0.335   0.341   0.367   0.412   0.419   0.434   0.411   0.409   0.427   0.442   0.415   0.421   0.407   0.401   0.371   0.369   0.351   0.372   0.353   0.379   0.423   0.434   0.432   0.443   0.435
   233.50    0.357   0.356   0.348   0.378   0.369   0.388   0.397   0.406   0.376   0.372   0.344   0.317   0.316   0.300   0.306   0.338   0.358   0.362   0.369   0.368   0.381   0.366   0.373   0.380   0.352   0.334   0.343   0.336   0.333   0.338   0.351   0.365   0.382   0.368   0.357   0.357   0.386   0.387   0.382   0.387   0.389   0.389   0.375   0.394   0.388   0.399   0.414   0.393   0.391   0.394   0.361   0.373   0.359   0.349   0.333   0.316   0.313   0.319   0.325   0.310   0.292   0.320   0.331   0.332   0.348   0.327   0.334   0.347   0.350   0.345   0.369   0.379   0.385   0.365   0.362   0.375   0.398   0.419   0.413   0.415   0.415   0.416   0.438   0.451   0.450   0.412   0.399   0.394   0.424   0.423   0.440   0.418   0.434   0.428   0.397   0.377   0.379   0.406   0.427   0.448   0.466   0.438   0.424   0.407   0.371   0.393   0.423   0.444   0.452   0.432   0.421   0.414   0.419   0.408   0.385   0.375   0.376   0.366   0.354   0.340   0.313   0.326   0.334   0.347   0.353   0.345   0.343   0.341   0.337   0.349   0.336   0.335   0.300   0.296   0.298   0.305   0.346   0.362   0.367   0.362   0.373   0.377   0.348   0.353   0.341   0.356   0.342   0.324   0.331   0.355   0.365   0.360   0.343   0.346   0.366   0.352   0.345   0.332   0.376   0.362   0.374   0.403   0.382   0.377   0.393   0.366   0.344   0.352   0.352   0.339   0.378   0.418   0.389   0.415   0.396   0.397   0.411   0.423   0.382   0.384   0.378   0.372   0.380   0.354   0.372   0.358   0.376   0.407   0.446   0.462   0.481   0.461   0.436
   224.20    0.362   0.353   0.366   0.354   0.362   0.381   0.390   0.393   0.367   0.350   0.322   0.321   0.300   0.332   0.312   0.334   0.385   0.387   0.391   0.366   0.350   0.352   0.368   0.391   0.371   0.374   0.345   0.352   0.328   0.340   0.367   0.366   0.362   0.369   0.348   0.373   0.381   0.403   0.425   0.414   0.402   0.409   0.367   0.377   0.401   0.395   0.410   0.379   0.373   0.367   0.334   0.357   0.359   0.332   0.312   0.323   0.330   0.321   0.291   0.296   0.303   0.318   0.300   0.311   0.337   0.348   0.350   0.345   0.338   0.367   0.347   0.364   0.363   0.347   0.358   0.396   0.384   0.411   0.395   0.423   0.410   0.432   0.426   0.444   0.454   0.441   0.430   0.414   0.412   0.424   0.427   0.421   0.442   0.437   0.408   0.370   0.374   0.383   0.408   0.428   0.464   0.439   0.455   0.414   0.402   0.440   0.423   0.438   0.455   0.448   0.411   0.416   0.410   0.397   0.412   0.388   0.362   0.351   0.362   0.326   0.325   0.324   0.340   0.356   0.355   0.356   0.367   0.360   0.338   0.358   0.330   0.327   0.295   0.294   0.310   0.340   0.364   0.374   0.360   0.339   0.343   0.362   0.347   0.365   0.352   0.346   0.340   0.331   0.339   0.345   0.380   0.360   0.354   0.338   0.331   0.351   0.329   0.332   0.369   0.380   0.428   0.413   0.403   0.367   0.378   0.359   0.357   0.354   0.356   0.363   0.365   0.380   0.396   0.373   0.404   0.378   0.389   0.392   0.372   0.370   0.367   0.384   0.378   0.372   0.372   0.392   0.431   0.447   0.435   0.467   0.484   0.463   0.444
   214.90    0.369   0.341   0.344   0.351   0.353   0.360   0.383   0.382   0.368   0.357   0.327   0.321   0.304   0.334   0.343   0.348   0.376   0.387   0.403   0.395   0.371   0.350   0.377   0.353   0.385   0.348   0.362   0.362   0.338   0.340   0.359   0.369   0.348   0.362   0.378   0.390   0.389   0.384   0.415   0.426   0.405   0.375   0.353   0.367   0.386   0.390   0.376   0.372   0.351   0.350   0.375   0.349   0.340   0.317   0.317   0.328   0.333   0.315   0.309   0.303   0.310   0.308   0.304   0.296   0.318   0.335   0.341   0.350   0.362   0.346   0.335   0.383   0.348   0.346   0.341   0.362   0.411   0.399   0.386   0.409   0.411   0.416   0.442   0.452   0.438   0.431   0.424   0.412   0.405   0.411   0.433   0.434   0.433   0.422   0.389   0.416   0.388   0.398   0.410   0.439   0.442   0.435   0.422   0.427   0.436   0.441   0.436   0.435   0.418   0.405   0.426   0.403   0.407   0.436   0.424   0.382   0.367   0.357   0.343   0.338   0.322   0.313   0.340   0.340   0.351   0.358   0.396   0.352   0.372   0.359   0.338   0.328   0.336   0.337   0.346   0.349   0.341   0.348   0.354   0.346   0.308   0.320   0.346   0.352   0.366   0.364   0.347   0.318   0.319   0.346   0.352   0.366   0.351   0.344   0.332   0.333   0.341   0.330   0.350   0.382   0.399   0.403   0.382   0.385   0.376   0.377   0.382   0.377   0.330   0.352   0.373   0.396   0.379   0.384   0.378   0.377   0.391   0.385   0.365   0.360   0.391   0.404   0.426   0.379   0.381   0.390   0.424   0.418   0.406   0.442   0.454   0.440   0.419
   205.60    0.357   0.355   0.360   0.372   0.383   0.347   0.346   0.352   0.345   0.308   0.329   0.327   0.325   0.340   0.353   0.364   0.376   0.381   0.363   0.378   0.397   0.376   0.374   0.376   0.369   0.349   0.346   0.350   0.373   0.360   0.393   0.360   0.347   0.353   0.379   0.380   0.375   0.401   0.404   0.417   0.419   0.387   0.369   0.375   0.392   0.400   0.383   0.351   0.375   0.333   0.352   0.342   0.335   0.328   0.311   0.320   0.335   0.330   0.328   0.307   0.279   0.300   0.310   0.307   0.296   0.317   0.343   0.365   0.361   0.341   0.361   0.355   0.356   0.342   0.356   0.361   0.383   0.367   0.370   0.381   0.395   0.431   0.434   0.427   0.446   0.460   0.437   0.439   0.460   0.446   0.436   0.425   0.428   0.418   0.395   0.416   0.407   0.410   0.396   0.420   0.437   0.432   0.449   0.445   0.436   0.427   0.418   0.434   0.413   0.414   0.408   0.390   0.413   0.424   0.403   0.379   0.378   0.355   0.365   0.335   0.331   0.323   0.328   0.364   0.348   0.381   0.408   0.389   0.375   0.347   0.349   0.342   0.314   0.322   0.317   0.314   0.342   0.342   0.344   0.331   0.313   0.336   0.331   0.328   0.345   0.342   0.349   0.350   0.321   0.326   0.326   0.317   0.320   0.332   0.321   0.337   0.343   0.331   0.345   0.376   0.382   0.392   0.409   0.369   0.377   0.377   0.392   0.370   0.353   0.348   0.362   0.372   0.352   0.348   0.381   0.399   0.370   0.374   0.370   0.341   0.355   0.383   0.407   0.403   0.396   0.391   0.412   0.424   0.410   0.438   0.460   0.425   0.421
   196.30    0.341   0.351   0.357   0.362   0.371   0.357   0.329   0.357   0.351   0.359   0.324   0.331   0.312   0.336   0.360   0.367   0.393   0.366   0.379   0.391   0.377   0.363   0.363   0.366   0.376   0.364   0.356   0.381   0.376   0.385   0.398   0.381   0.357   0.361   0.350   0.364   0.359   0.364   0.371   0.397   0.435   0.393   0.385   0.359   0.377   0.387   0.379   0.393   0.362   0.354   0.358   0.350   0.354   0.343   0.333   0.330   0.331   0.322   0.311   0.288   0.297   0.319   0.309   0.311   0.339   0.340   0.341   0.350   0.336   0.329   0.346   0.349   0.369   0.365   0.389   0.364   0.350   0.357   0.352   0.377   0.389   0.414   0.428   0.420   0.421   0.433   0.417   0.429   0.444   0.475   0.433   0.410   0.451   0.429   0.414   0.401   0.417   0.407   0.399   0.404   0.423   0.421   0.431   0.416   0.432   0.428   0.404   0.422   0.411   0.393   0.397   0.378   0.421   0.412   0.414   0.373   0.381   0.358   0.376   0.343   0.336   0.328   0.330   0.332   0.362   0.385   0.391   0.400   0.406   0.390   0.361   0.362   0.336   0.326   0.331   0.318   0.320   0.345   0.343   0.351   0.361   0.314   0.335   0.318   0.335   0.366   0.334   0.327   0.314   0.336   0.341   0.320   0.312   0.316   0.322   0.331   0.312   0.332   0.340   0.360   0.371   0.355   0.371   0.373   0.389   0.382   0.381   0.375   0.372   0.361   0.364   0.382   0.338   0.333   0.349   0.366   0.360   0.365   0.330   0.342   0.362   0.358   0.390   0.400   0.388   0.381   0.397   0.413   0.438   0.429   0.436   0.402   0.410
   187.00    0.349   0.329   0.334   0.342   0.361   0.350   0.346   0.340   0.353   0.349   0.339   0.318   0.323   0.323   0.349   0.365   0.365   0.366   0.369   0.374   0.386   0.385   0.369   0.354   0.346   0.357   0.370   0.396   0.406   0.404   0.388   0.374   0.373   0.364   0.385   0.352   0.360   0.386   0.399   0.409   0.429   0.426   0.422   0.376   0.381   0.377   0.395   0.384   0.357   0.362   0.365   0.363   0.344   0.365   0.339   0.322   0.328   0.316   0.316   0.291   0.305   0.331   0.337   0.335   0.320   0.321   0.314   0.301   0.308   0.317   0.344   0.358   0.364   0.377   0.393   0.392   0.382   0.352   0.366   0.383   0.376   0.404   0.384   0.382   0.393   0.397   0.371   0.407   0.431   0.450   0.459   0.432   0.446   0.440   0.453   0.440   0.417   0.430   0.399   0.410   0.428   0.442   0.435   0.433   0.427   0.422   0.427   0.408   0.381   0.376   0.373   0.396   0.406   0.425   0.390   0.388   0.397   0.362   0.358   0.347   0.348   0.314   0.345   0.364   0.376   0.376   0.406   0.404   0.414   0.376   0.377   0.365   0.350   0.372   0.344   0.318   0.339   0.345   0.346   0.327   0.334   0.337   0.333   0.327   0.339   0.353   0.329   0.326   0.326   0.362   0.342   0.331   0.318   0.322   0.319   0.332   0.322   0.328   0.341   0.349   0.357   0.371   0.356   0.362   0.382   0.387   0.401   0.411   0.367   0.362   0.363   0.362   0.390   0.365   0.369   0.372   0.346   0.353   0.347   0.336   0.350   0.366   0.376   0.390   0.408   0.383   0.424   0.435   0.420   0.390   0.401   0.383   0.389
   177.70    0.352   0.359   0.346   0.351   0.358   0.371   0.343   0.337   0.343   0.347   0.334   0.330   0.318   0.333   0.341   0.352   0.355   0.369   0.344   0.381   0.403   0.376   0.394   0.375   0.358   0.335   0.361   0.373   0.397   0.403   0.376   0.368   0.341   0.336   0.362   0.356   0.348   0.371   0.377   0.400   0.420   0.428   0.419   0.375   0.378   0.378   0.376   0.377   0.336   0.348   0.353   0.326   0.345   0.386   0.363   0.348   0.327   0.313   0.306   0.301   0.333   0.335   0.341   0.344   0.332   0.336   0.325   0.332   0.317   0.323   0.357   0.358   0.338   0.350   0.354   0.397   0.407   0.396   0.394   0.382   0.382   0.401   0.382   0.377   0.408   0.382   0.344   0.397   0.414   0.428   0.452   0.442   0.451   0.477   0.452   0.442   0.434   0.410   0.410   0.391   0.429   0.430   0.429   0.411   0.419   0.414   0.430   0.401   0.385   0.373   0.370   0.401   0.407   0.414   0.380   0.365   0.375   0.363   0.352   0.351   0.350   0.363   0.344   0.375   0.371   0.395   0.403   0.413   0.389   0.378   0.384   0.383   0.370   0.372   0.358   0.337   0.355   0.373   0.360   0.338   0.334   0.329   0.343   0.329   0.339   0.357   0.337   0.316   0.351   0.363   0.363   0.318   0.315   0.331   0.315   0.312   0.337   0.338   0.340   0.345   0.347   0.359   0.340   0.373   0.402   0.386   0.407   0.406   0.384   0.386   0.358   0.368   0.380   0.387   0.389   0.395   0.391   0.366   0.342   0.339   0.345   0.364   0.371   0.367   0.397   0.414   0.403   0.424   0.419   0.388   0.387   0.399   0.388
   168.40    0.384   0.374   0.356   0.361   0.371   0.355   0.331   0.342   0.365   0.350   0.324   0.342   0.363   0.360   0.373   0.366   0.377   0.375   0.384   0.385   0.386   0.383   0.390   0.397   0.362   0.348   0.364   0.401   0.402   0.394   0.378   0.345   0.337   0.344   0.349   0.339   0.328   0.367   0.386   0.380   0.402   0.416   0.400   0.391   0.370   0.391   0.380   0.375   0.354   0.343   0.339   0.323   0.321   0.341   0.349   0.340   0.336   0.303   0.305   0.301   0.317   0.320   0.329   0.325   0.317   0.358   0.349   0.337   0.337   0.334   0.361   0.379   0.356   0.358   0.368   0.396   0.415   0.410   0.399   0.390   0.408   0.389   0.389   0.392   0.414   0.372   0.360   0.389   0.390   0.424   0.470   0.435   0.434   0.454   0.453   0.444   0.418   0.380   0.400   0.413   0.436   0.449   0.433   0.442   0.446   0.418   0.425   0.406   0.388   0.377   0.385   0.383   0.375   0.380   0.377   0.354   0.365   0.363   0.357   0.366   0.356   0.379   0.359   0.363   0.360   0.396   0.409   0.408   0.407   0.379   0.366   0.366   0.374   0.357   0.363   0.349   0.371   0.358   0.354   0.332   0.344   0.327   0.332   0.335   0.336   0.345   0.340   0.338   0.351   0.367   0.347   0.329   0.302   0.306   0.295   0.335   0.347   0.373   0.350   0.342   0.355   0.350   0.342   0.358   0.377   0.395   0.376   0.397   0.385   0.366   0.368   0.373   0.388   0.407   0.403   0.431   0.399   0.361   0.343   0.326   0.342   0.383   0.402   0.380   0.393   0.401   0.390   0.425   0.418   0.356   0.363   0.390   0.379
   159.10    0.373   0.379   0.352   0.361   0.352   0.348   0.339   0.334   0.359   0.365   0.356   0.358   0.378   0.394   0.367   0.381   0.383   0.405   0.407   0.408   0.400   0.406   0.370   0.388   0.358   0.354   0.360   0.380   0.401   0.387   0.364   0.357   0.342   0.343   0.325   0.336   0.348   0.364   0.388   0.409   0.419   0.412   0.389   0.382   0.397   0.395   0.360   0.367   0.377   0.359   0.368   0.339   0.331   0.302   0.338   0.336   0.320   0.303   0.329   0.341   0.349   0.352   0.350   0.363   0.378   0.384   0.376   0.358   0.363   0.353   0.355   0.371   0.379   0.357   0.383   0.387   0.406   0.430   0.428   0.391   0.382   0.402   0.397   0.395   0.411   0.400   0.356   0.373   0.418   0.430   0.453   0.447   0.444   0.457   0.444   0.467   0.440   0.411   0.374   0.391   0.426   0.441   0.443   0.472   0.462   0.438   0.402   0.399   0.389   0.361   0.373   0.362   0.345   0.357   0.354   0.355   0.357   0.357   0.349   0.352   0.339   0.340   0.359   0.343   0.328   0.375   0.401   0.385   0.408   0.379   0.354   0.340   0.361   0.361   0.359   0.342   0.365   0.346   0.351   0.345   0.341   0.325   0.323   0.339   0.333   0.329   0.364   0.355   0.353   0.346   0.369   0.347   0.316   0.294   0.297   0.307   0.343   0.372   0.371   0.347   0.339   0.347   0.362   0.368   0.370   0.361   0.359   0.376   0.393   0.362   0.361   0.408   0.401   0.397   0.421   0.439   0.413   0.373   0.346   0.361   0.358   0.388   0.392   0.403   0.402   0.400   0.406   0.410   0.368   0.372   0.368   0.369   0.375
   149.80    0.390   0.366   0.356   0.341   0.354   0.335   0.313   0.342   0.351   0.377   0.385   0.379   0.377   0.404   0.398   0.387   0.416   0.407   0.403   0.407   0.393   0.401   0.388   0.401   0.364   0.357   0.379   0.380   0.388   0.359   0.357   0.346   0.329   0.343   0.326   0.346   0.317   0.372   0.377   0.390   0.374   0.365   0.360   0.358   0.365   0.381   0.385   0.376   0.390   0.335   0.366   0.381   0.344   0.319   0.316   0.331   0.338   0.325   0.339   0.381   0.349   0.362   0.373   0.381   0.388   0.389   0.394   0.377   0.342   0.361   0.383   0.400   0.378   0.365   0.387   0.394   0.393   0.416   0.412   0.392   0.385   0.420   0.427   0.413   0.414   0.417   0.369   0.372   0.419   0.438   0.445   0.447   0.457   0.476   0.496   0.492   0.463   0.429   0.409   0.432   0.429   0.440   0.444   0.447   0.439   0.436   0.418   0.378   0.370   0.360   0.348   0.336   0.318   0.323   0.350   0.351   0.355   0.362   0.360   0.370   0.335   0.326   0.317   0.318   0.319   0.356   0.372   0.389   0.380   0.362   0.328   0.315   0.340   0.341   0.353   0.364   0.359   0.360   0.357   0.352   0.359   0.349   0.333   0.344   0.354   0.348   0.382   0.365   0.363   0.365   0.362   0.342   0.311   0.322   0.327   0.358   0.344   0.352   0.353   0.348   0.362   0.354   0.342   0.365   0.367   0.358   0.362   0.353   0.353   0.332   0.347   0.381   0.394   0.419   0.411   0.407   0.413   0.391   0.362   0.363   0.357   0.360   0.375   0.384   0.421   0.397   0.405   0.393   0.398   0.397   0.369   0.365   0.383
   140.50    0.367   0.362   0.355   0.360   0.375   0.355   0.361   0.349   0.363   0.360   0.377   0.374   0.366   0.396   0.407   0.381   0.412   0.406   0.391   0.403   0.387   0.383   0.393   0.384   0.382   0.374   0.359   0.358   0.362   0.363   0.360   0.368   0.360   0.344   0.342   0.320   0.318   0.342   0.338   0.334   0.318   0.338   0.333   0.336   0.369   0.379   0.365   0.357   0.358   0.354   0.376   0.368   0.350   0.327   0.325   0.354   0.353   0.348   0.362   0.371   0.365   0.360   0.374   0.368   0.358   0.383   0.358   0.344   0.350   0.352   0.369   0.382   0.391   0.363   0.386   0.394   0.397   0.389   0.412   0.397   0.422   0.412   0.400   0.422   0.439   0.417   0.388   0.394   0.414   0.424   0.461   0.463   0.490   0.498   0.506   0.492   0.455   0.442   0.399   0.411   0.421   0.453   0.463   0.425   0.428   0.431   0.411   0.400   0.398   0.359   0.358   0.361   0.316   0.308   0.308   0.338   0.350   0.340   0.334   0.340   0.343   0.317   0.310   0.305   0.321   0.366   0.373   0.383   0.379   0.377   0.335   0.341   0.344   0.325   0.324   0.367   0.396   0.386   0.385   0.384   0.381   0.362   0.377   0.360   0.361   0.364   0.411   0.401   0.385   0.388   0.362   0.381   0.357   0.382   0.377   0.373   0.371   0.368   0.377   0.341   0.352   0.335   0.344   0.366   0.363   0.353   0.346   0.317   0.319   0.342   0.331   0.365   0.398   0.425   0.439   0.414   0.414   0.403   0.368   0.374   0.369   0.363   0.377   0.396   0.425   0.437   0.400   0.398   0.397   0.408   0.403   0.387   0.423
   131.20    0.365   0.358   0.373   0.372   0.383   0.370   0.367   0.387   0.344   0.355   0.368   0.353   0.356   0.369   0.390   0.370   0.393   0.404   0.412   0.382   0.379   0.378   0.403   0.395   0.403   0.383   0.373   0.337   0.356   0.330   0.344   0.345   0.336   0.344   0.343   0.318   0.319   0.318   0.332   0.311   0.317   0.321   0.338   0.323   0.336   0.349   0.344   0.320   0.350   0.359   0.381   0.354   0.347   0.348   0.357   0.373   0.375   0.375   0.391   0.386   0.380   0.373   0.377   0.352   0.351   0.378   0.351   0.350   0.350   0.347   0.371   0.383   0.360   0.372   0.404   0.371   0.392   0.416   0.404   0.403   0.378   0.403   0.387   0.410   0.408   0.437   0.387   0.395   0.411   0.448   0.470   0.481   0.505   0.504   0.516   0.497   0.465   0.430   0.422   0.448   0.428   0.435   0.424   0.450   0.420   0.401   0.417   0.431   0.413   0.369   0.335   0.351   0.339   0.327   0.313   0.333   0.321   0.334   0.335   0.350   0.340   0.328   0.298   0.323   0.328   0.363   0.365   0.369   0.349   0.356   0.332   0.323   0.347   0.314   0.326   0.351   0.376   0.377   0.379   0.387   0.370   0.391   0.385   0.391   0.401   0.398   0.427   0.422   0.397   0.383   0.403   0.388   0.372   0.378   0.395   0.377   0.393   0.391   0.350   0.346   0.351   0.343   0.346   0.365   0.376   0.357   0.353   0.347   0.354   0.329   0.344   0.374   0.377   0.399   0.419   0.418   0.417   0.402   0.395   0.374   0.358   0.374   0.388   0.400   0.374   0.403   0.395   0.393   0.384   0.390   0.376   0.397   0.406
   121.90    0.383   0.402   0.383   0.393   0.384   0.381   0.376   0.368   0.368   0.378   0.372   0.363   0.376   0.366   0.373   0.370   0.397   0.390   0.370   0.384   0.375   0.376   0.376   0.396   0.408   0.388   0.382   0.336   0.336   0.315   0.311   0.319   0.315   0.330   0.338   0.329   0.321   0.331   0.322   0.321   0.318   0.338   0.335   0.312   0.331   0.340   0.321   0.329   0.345   0.333   0.356   0.348   0.354   0.369   0.375   0.376   0.382   0.380   0.387   0.393   0.397   0.385   0.370   0.342   0.366   0.399   0.371   0.344   0.347   0.357   0.365   0.389   0.402   0.368   0.381   0.384   0.386   0.403   0.416   0.381   0.385   0.425   0.398   0.397   0.401   0.416   0.426   0.429   0.449   0.488   0.497   0.497   0.487   0.491   0.512   0.480   0.465   0.430   0.427   0.445   0.444   0.432   0.436   0.414   0.444   0.434   0.455   0.454   0.419   0.394   0.354   0.336   0.332   0.317   0.338   0.337   0.321   0.323   0.339   0.322   0.353   0.337   0.310   0.327   0.337   0.366   0.342   0.363   0.361   0.388   0.365   0.341   0.333   0.335   0.346   0.364   0.368   0.382   0.378   0.388   0.367   0.380   0.379   0.392   0.405   0.408   0.402   0.425   0.408   0.393   0.399   0.406   0.381   0.386   0.374   0.388   0.412   0.411   0.375   0.373   0.370   0.370   0.358   0.346   0.337   0.362   0.378   0.357   0.339   0.322   0.322   0.362   0.387   0.381   0.408   0.413   0.437   0.419   0.406   0.377   0.364   0.352   0.375   0.382   0.378   0.374   0.390   0.394   0.404   0.396   0.383   0.432   0.460
   112.60    0.367   0.393   0.409   0.390   0.380   0.357   0.371   0.377   0.335   0.368   0.384   0.383   0.384   0.355   0.378   0.372   0.379   0.390   0.384   0.372   0.352   0.357   0.363   0.377   0.398   0.386   0.385   0.374   0.337   0.313   0.320   0.310   0.330   0.322   0.303   0.319   0.321   0.318   0.300   0.320   0.327   0.304   0.321   0.316   0.347   0.337   0.321   0.306   0.304   0.340   0.346   0.359   0.346   0.356   0.368   0.368   0.386   0.373   0.352   0.365   0.379   0.401   0.379   0.378   0.381   0.389   0.368   0.360   0.346   0.346   0.358   0.370   0.382   0.378   0.379   0.403   0.396   0.383   0.363   0.373   0.408   0.431   0.429   0.393   0.429   0.454   0.466   0.454   0.464   0.506   0.531   0.528   0.527   0.511   0.495   0.477   0.458   0.424   0.468   0.448   0.454   0.482   0.454   0.443   0.428   0.464   0.477   0.455   0.450   0.401   0.397   0.345   0.357   0.324   0.338   0.315   0.327   0.339   0.364   0.338   0.352   0.353   0.327   0.329   0.348   0.351   0.347   0.355   0.360   0.343   0.360   0.357   0.337   0.343   0.348   0.346   0.362   0.358   0.389   0.381   0.376   0.362   0.387   0.396   0.387   0.405   0.407   0.397   0.408   0.413   0.409   0.432   0.411   0.434   0.411   0.426   0.408   0.391   0.379   0.381   0.366   0.367   0.338   0.347   0.334   0.345   0.373   0.375   0.311   0.338   0.345   0.377   0.383   0.385   0.397   0.421   0.429   0.419   0.384   0.378   0.338   0.373   0.378   0.380   0.362   0.354   0.398   0.397   0.404   0.398   0.408   0.438   0.467
   103.30    0.358   0.377   0.378   0.368   0.388   0.381   0.392   0.355   0.359   0.376   0.380   0.373   0.350   0.352   0.365   0.359   0.364   0.373   0.358   0.365   0.360   0.341   0.332   0.388   0.387   0.385   0.385   0.349   0.340   0.312   0.304   0.322   0.324   0.294   0.318   0.325   0.323   0.335   0.315   0.340   0.339   0.338   0.361   0.359   0.347   0.322   0.328   0.328   0.347   0.353   0.376   0.360   0.343   0.347   0.356   0.364   0.356   0.356   0.363   0.353   0.386   0.401   0.408   0.395   0.411   0.382   0.354   0.366   0.358   0.355   0.352   0.384   0.406   0.392   0.397   0.384   0.384   0.349   0.372   0.373   0.411   0.421   0.437   0.435   0.433   0.448   0.462   0.468   0.474   0.508   0.521   0.528   0.516   0.519   0.488   0.487   0.441   0.447   0.443   0.451   0.475   0.461   0.443   0.440   0.431   0.453   0.458   0.435   0.444   0.420   0.411   0.392   0.358   0.336   0.343   0.351   0.336   0.346   0.357   0.348   0.365   0.378   0.349   0.374   0.373   0.363   0.342   0.345   0.336   0.355   0.368   0.372   0.355   0.356   0.339   0.367   0.374   0.361   0.380   0.408   0.368   0.358   0.374   0.399   0.395   0.403   0.394   0.368   0.403   0.409   0.442   0.430   0.430   0.439   0.437   0.407   0.411   0.386   0.390   0.371   0.360   0.349   0.338   0.309   0.317   0.357   0.354   0.370   0.335   0.320   0.359   0.373   0.393   0.387   0.415   0.407   0.436   0.416   0.394   0.379   0.345   0.358   0.367   0.371   0.366   0.367   0.370   0.401   0.382   0.406   0.416   0.418   0.446
    94.00    0.324   0.362   0.385   0.385   0.390   0.401   0.381   0.375   0.374   0.369   0.377   0.360   0.350   0.357   0.373   0.378   0.374   0.341   0.341   0.336   0.348   0.316   0.339   0.374   0.355   0.357   0.367   0.365   0.325   0.312   0.299   0.325   0.319   0.323   0.327   0.345   0.335   0.326   0.329   0.326   0.331   0.327   0.354   0.325   0.323   0.344   0.333   0.354   0.376   0.369   0.365   0.379   0.349   0.350   0.336   0.336   0.332   0.361   0.344   0.345   0.372   0.393   0.403   0.396   0.385   0.377   0.350   0.350   0.353   0.356   0.372   0.367   0.375   0.376   0.387   0.370   0.366   0.361   0.397   0.402   0.402   0.434   0.442   0.437   0.465   0.488   0.478   0.513   0.531   0.517   0.548   0.553   0.507   0.500   0.495   0.462   0.457   0.458   0.438   0.410   0.407   0.416   0.422   0.424   0.440   0.460   0.438   0.430   0.423   0.428   0.419   0.397   0.383   0.385   0.400   0.377   0.358   0.370   0.357   0.358   0.367   0.381   0.363   0.371   0.364   0.339   0.351   0.346   0.348   0.371   0.360   0.377   0.394   0.377   0.362   0.387   0.387   0.368   0.381   0.390   0.405   0.379   0.358   0.373   0.389   0.405   0.381   0.389   0.399   0.387   0.421   0.428   0.389   0.426   0.424   0.422   0.418   0.419   0.377   0.377   0.357   0.338   0.307   0.324   0.328   0.359   0.380   0.348   0.342   0.345   0.362   0.355   0.372   0.378   0.386   0.409   0.430   0.403   0.399   0.389   0.356   0.340   0.377   0.368   0.383   0.354   0.371   0.372   0.373   0.395   0.425   0.426   0.449
    84.70    0.343   0.350   0.373   0.364   0.381   0.401   0.345   0.373   0.371   0.377   0.357   0.357   0.341   0.352   0.354   0.356   0.357   0.347   0.342   0.324   0.315   0.320   0.317   0.344   0.334   0.343   0.345   0.370   0.360   0.322   0.316   0.320   0.335   0.337   0.321   0.357   0.343   0.330   0.352   0.349   0.317   0.334   0.346   0.340   0.344   0.340   0.355   0.354   0.389   0.385   0.368   0.357   0.362   0.335   0.339   0.349   0.345   0.345   0.344   0.355   0.348   0.361   0.376   0.370   0.348   0.374   0.370   0.329   0.352   0.362   0.361   0.377   0.368   0.376   0.362   0.388   0.387   0.401   0.403   0.406   0.416   0.415   0.416   0.438   0.459   0.513   0.513   0.547   0.534   0.560   0.542   0.547   0.504   0.480   0.474   0.472   0.447   0.461   0.469   0.439   0.430   0.445   0.440   0.425   0.415   0.433   0.427   0.410   0.421   0.400   0.425   0.401   0.410   0.405   0.417   0.407   0.367   0.353   0.340   0.369   0.366   0.356   0.357   0.357   0.332   0.336   0.359   0.362   0.368   0.372   0.381   0.374   0.364   0.392   0.383   0.360   0.361   0.381   0.383   0.379   0.377   0.364   0.359   0.368   0.378   0.387   0.386   0.365   0.382   0.390   0.408   0.387   0.390   0.398   0.389   0.418   0.415   0.413   0.401   0.387   0.339   0.328   0.313   0.306   0.317   0.349   0.337   0.339   0.349   0.335   0.334   0.352   0.382   0.390   0.362   0.371   0.385   0.389   0.384   0.388   0.369   0.361   0.383   0.389   0.353   0.358   0.366   0.368   0.361   0.389   0.402   0.433   0.442
    75.40    0.374   0.348   0.366   0.375   0.389   0.390   0.390   0.362   0.373   0.383   0.376   0.341   0.350   0.329   0.347   0.373   0.354   0.351   0.334   0.304   0.315   0.328   0.346   0.321   0.343   0.328   0.330   0.355   0.352   0.351   0.343   0.319   0.340   0.366   0.343   0.368   0.350   0.374   0.352   0.343   0.325   0.333   0.348   0.351   0.351   0.316   0.330   0.373   0.362   0.368   0.386   0.360   0.358   0.346   0.357   0.353   0.355   0.332   0.321   0.337   0.364   0.350   0.362   0.389   0.377   0.378   0.369   0.344   0.328   0.364   0.345   0.380   0.361   0.369   0.362   0.382   0.383   0.403   0.391   0.399   0.407   0.384   0.415   0.438   0.486   0.511   0.541   0.542   0.549   0.553   0.541   0.506   0.500   0.501   0.487   0.470   0.458   0.464   0.429   0.424   0.422   0.417   0.420   0.421   0.401   0.415   0.425   0.401   0.398   0.384   0.402   0.411   0.403   0.410   0.423   0.401   0.387   0.379   0.377   0.351   0.358   0.340   0.357   0.334   0.329   0.358   0.371   0.367   0.387   0.395   0.372   0.386   0.406   0.396   0.362   0.381   0.359   0.351   0.374   0.383   0.375   0.388   0.364   0.333   0.380   0.392   0.376   0.366   0.356   0.411   0.428   0.397   0.401   0.403   0.421   0.412   0.423   0.407   0.377   0.370   0.357   0.340   0.335   0.336   0.324   0.348   0.356   0.346   0.365   0.346   0.332   0.345   0.352   0.369   0.364   0.375   0.383   0.378   0.385   0.376   0.381   0.381   0.355   0.346   0.343   0.320   0.312   0.321   0.344   0.342   0.372   0.399   0.400
    66.10    0.354   0.348   0.354   0.363   0.380   0.393   0.389   0.388   0.373   0.349   0.356   0.351   0.344   0.330   0.324   0.354   0.365   0.363   0.322   0.294   0.305   0.318   0.333   0.322   0.324   0.320   0.310   0.326   0.344   0.337   0.344   0.358   0.377   0.398   0.376   0.375   0.367   0.359   0.371   0.356   0.358   0.362   0.378   0.351   0.354   0.344   0.345   0.378   0.356   0.373   0.358   0.377   0.358   0.366   0.345   0.343   0.347   0.339   0.320   0.338   0.351   0.362   0.369   0.383   0.387   0.369   0.343   0.324   0.323   0.342   0.345   0.374   0.383   0.378   0.382   0.380   0.394   0.380   0.414   0.420   0.385   0.437   0.417   0.446   0.495   0.493   0.514   0.548   0.537   0.543   0.535   0.535   0.529   0.500   0.497   0.474   0.480   0.460   0.443   0.397   0.406   0.410   0.419   0.401   0.404   0.413   0.427   0.402   0.397   0.394   0.418   0.422   0.430   0.424   0.413   0.412   0.400   0.390   0.382   0.382   0.366   0.348   0.361   0.359   0.365   0.382   0.376   0.371   0.388   0.387   0.369   0.360   0.363   0.388   0.378   0.377   0.377   0.369   0.338   0.333   0.331   0.374   0.382   0.381   0.400   0.393   0.391   0.361   0.403   0.404   0.415   0.382   0.395   0.434   0.444   0.419   0.381   0.362   0.362   0.369   0.353   0.332   0.345   0.323   0.341   0.357   0.356   0.364   0.341   0.357   0.326   0.324   0.359   0.346   0.359   0.360   0.402   0.400   0.381   0.364   0.365   0.386   0.357   0.327   0.314   0.323   0.329   0.325   0.319   0.356   0.369   0.395   0.391
    56.80    0.343   0.329   0.355   0.370   0.352   0.380   0.381   0.387   0.393   0.372   0.353   0.361   0.367   0.349   0.353   0.343   0.363   0.366   0.325   0.325   0.313   0.322   0.323   0.338   0.335   0.297   0.312   0.328   0.345   0.349   0.372   0.383   0.381   0.401   0.415   0.395   0.377   0.384   0.358   0.342   0.358   0.359   0.348   0.373   0.366   0.364   0.355   0.370   0.403   0.385   0.377   0.384   0.357   0.368   0.374   0.383   0.348   0.337   0.327   0.321   0.316   0.347   0.346   0.364   0.364   0.347   0.347   0.332   0.332   0.321   0.350   0.362   0.377   0.355   0.371   0.381   0.387   0.398   0.399   0.401   0.408   0.431   0.462   0.453   0.495   0.501   0.529   0.524   0.513   0.545   0.527   0.522   0.527   0.518   0.475   0.474   0.485   0.472   0.458   0.432   0.435   0.430   0.410   0.401   0.385   0.410   0.424   0.427   0.416   0.386   0.409   0.387   0.412   0.451   0.452   0.416   0.419   0.400   0.379   0.372   0.363   0.364   0.396   0.381   0.356   0.396   0.390   0.381   0.371   0.364   0.349   0.356   0.394   0.394   0.377   0.380   0.365   0.357   0.316   0.293   0.310   0.334   0.347   0.366   0.381   0.391   0.361   0.349   0.370   0.366   0.396   0.364   0.368   0.405   0.432   0.389   0.375   0.360   0.384   0.369   0.334   0.350   0.345   0.325   0.334   0.381   0.374   0.372   0.351   0.369   0.354   0.333   0.359   0.358   0.368   0.383   0.381   0.364   0.363   0.380   0.390   0.400   0.360   0.345   0.337   0.326   0.334   0.315   0.326   0.329   0.346   0.374   0.373
    47.50    0.355   0.389   0.373   0.374   0.353   0.378   0.366   0.369   0.361   0.363   0.394   0.373   0.381   0.346   0.339   0.339   0.367   0.356   0.342   0.348   0.316   0.318   0.344   0.365   0.355   0.312   0.324   0.345   0.357   0.368   0.382   0.380   0.391   0.386   0.428   0.410   0.414   0.397   0.352   0.358   0.349   0.346   0.341   0.343   0.356   0.342   0.362   0.392   0.403   0.401   0.377   0.390   0.388   0.400   0.384   0.365   0.384   0.351   0.335   0.318   0.330   0.334   0.350   0.356   0.372   0.338   0.329   0.366   0.335   0.326   0.352   0.333   0.324   0.328   0.330   0.350   0.371   0.394   0.392   0.414   0.409   0.449   0.488   0.490   0.490   0.484   0.493   0.488   0.479   0.513   0.503   0.501   0.519   0.511   0.475   0.457   0.500   0.490   0.456   0.433   0.432   0.417   0.416   0.436   0.410   0.419   0.411   0.424   0.433   0.413   0.399   0.397   0.393   0.436   0.426   0.399   0.378   0.382   0.398   0.389   0.380   0.371   0.360   0.391   0.409   0.408   0.410   0.377   0.369   0.347   0.359   0.369   0.390   0.390   0.377   0.364   0.349   0.329   0.311   0.305   0.297   0.306   0.336   0.357   0.371   0.349   0.356   0.368   0.383   0.358   0.367   0.354   0.355   0.356   0.403   0.387   0.362   0.384   0.395   0.335   0.332   0.335   0.354   0.340   0.333   0.380   0.390   0.348   0.361   0.377   0.359   0.355   0.369   0.373   0.369   0.361   0.379   0.369   0.365   0.382   0.388   0.385   0.379   0.375   0.361   0.319   0.307   0.311   0.338   0.346   0.344   0.349   0.366
    38.20    0.355   0.383   0.385   0.383   0.389   0.383   0.359   0.372   0.362   0.345   0.363   0.376   0.363   0.342   0.351   0.326   0.335   0.356   0.359   0.347   0.347   0.336   0.352   0.370   0.362   0.340   0.336   0.345   0.364   0.388   0.392   0.383   0.387   0.376   0.387   0.394   0.388   0.369   0.381   0.380   0.369   0.342   0.338   0.333   0.329   0.340   0.352   0.383   0.379   0.391   0.366   0.393   0.384   0.390   0.372   0.381   0.367   0.351   0.341   0.332   0.336   0.350   0.346   0.337   0.354   0.352   0.337   0.359   0.349   0.333   0.348   0.305   0.335   0.333   0.345   0.363   0.349   0.391   0.420   0.405   0.439   0.454   0.472   0.466   0.467   0.469   0.455   0.474   0.470   0.514   0.509   0.498   0.511   0.523   0.510   0.481   0.489   0.480   0.483   0.434   0.417   0.400   0.413   0.412   0.432   0.430   0.439   0.434   0.461   0.436   0.424   0.455   0.431   0.440   0.416   0.387   0.394   0.407   0.393   0.381   0.399   0.400   0.375   0.399   0.405   0.412   0.416   0.418   0.395   0.363   0.367   0.375   0.376   0.357   0.366   0.357   0.338   0.317   0.307   0.320   0.321   0.326   0.370   0.356   0.357   0.352   0.362   0.382   0.376   0.381   0.357   0.353   0.344   0.375   0.384   0.354   0.364   0.364   0.363   0.364   0.337   0.344   0.351   0.349   0.349   0.391   0.409   0.379   0.386   0.372   0.356   0.362   0.348   0.356   0.357   0.368   0.365   0.352   0.367   0.382   0.374   0.394   0.412   0.390   0.364   0.329   0.340   0.335   0.322   0.332   0.321   0.316   0.366
    28.90    0.374   0.365   0.381   0.369   0.405   0.405   0.367   0.362   0.330   0.350   0.363   0.365   0.372   0.364   0.376   0.362   0.338   0.356   0.376   0.353   0.353   0.341   0.344   0.371   0.359   0.353   0.365   0.352   0.379   0.391   0.408   0.406   0.420   0.391   0.385   0.384   0.398   0.397   0.412   0.390   0.383   0.350   0.347   0.356   0.342   0.341   0.341   0.353   0.344   0.369   0.375   0.386   0.400   0.355   0.367   0.377   0.385   0.360   0.364   0.367   0.332   0.347   0.337   0.336   0.350   0.337   0.348   0.355   0.332   0.328   0.324   0.339   0.343   0.359   0.362   0.378   0.358   0.362   0.407   0.408   0.415   0.450   0.462   0.501   0.472   0.459   0.460   0.486   0.474   0.493   0.491   0.497   0.518   0.516   0.502   0.496   0.490   0.499   0.486   0.450   0.411   0.442   0.426   0.447   0.429   0.436   0.439   0.438   0.462   0.468   0.427   0.443   0.420   0.418   0.422   0.396   0.408   0.386   0.369   0.359   0.370   0.385   0.393   0.407   0.403   0.394   0.415   0.429   0.397   0.349   0.346   0.364   0.351   0.340   0.341   0.338   0.333   0.327   0.340   0.340   0.357   0.381   0.361   0.364   0.361   0.369   0.362   0.369   0.370   0.366   0.341   0.354   0.363   0.367   0.367   0.384   0.360   0.359   0.367   0.376   0.370   0.379   0.353   0.345   0.368   0.377   0.382   0.395   0.354   0.378   0.367   0.354   0.345   0.345   0.381   0.371   0.351   0.348   0.357   0.373   0.386   0.382   0.382   0.401   0.356   0.344   0.357   0.323   0.326   0.343   0.327   0.327   0.361
    19.60    0.384   0.387   0.407   0.399   0.411   0.396   0.378   0.349   0.335   0.367   0.371   0.385   0.355   0.341   0.362   0.356   0.359   0.354   0.358   0.367   0.377   0.359   0.360   0.377   0.366   0.354   0.365   0.355   0.385   0.401   0.404   0.406   0.409   0.405   0.392   0.378   0.394   0.406   0.379   0.392   0.386   0.395   0.388   0.381   0.400   0.354   0.367   0.367   0.352   0.373   0.404   0.393   0.397   0.375   0.344   0.378   0.369   0.363   0.374   0.372   0.349   0.344   0.347   0.356   0.370   0.347   0.343   0.342   0.313   0.324   0.344   0.355   0.350   0.364   0.371   0.387   0.352   0.394   0.409   0.420   0.425   0.445   0.463   0.479   0.452   0.435   0.465   0.465   0.474   0.506   0.474   0.474   0.481   0.464   0.472   0.461   0.467   0.470   0.465   0.452   0.427   0.414   0.427   0.424   0.421   0.411   0.437   0.451   0.451   0.435   0.448   0.407   0.407   0.413   0.415   0.371   0.375   0.390   0.347   0.365   0.358   0.395   0.386   0.378   0.400   0.402   0.422   0.420   0.385   0.370   0.355   0.343   0.329   0.332   0.323   0.312   0.328   0.337   0.353   0.327   0.365   0.360   0.365   0.346   0.371   0.391   0.391   0.360   0.373   0.383   0.384   0.374   0.360   0.359   0.378   0.374   0.351   0.353   0.346   0.368   0.368   0.372   0.352   0.385   0.394   0.371   0.385   0.374   0.362   0.374   0.373   0.374   0.364   0.359   0.352   0.348   0.346   0.348   0.350   0.356   0.367   0.362   0.366   0.387   0.341   0.347   0.354   0.346   0.339   0.333   0.334   0.355   0.351
    10.30    0.385   0.372   0.403   0.412   0.404   0.360   0.366   0.348   0.353   0.352   0.359   0.367   0.376   0.381   0.360   0.372   0.343   0.358   0.351   0.362   0.373   0.378   0.391   0.368   0.360   0.375   0.342   0.362   0.373   0.377   0.385   0.384   0.393   0.387   0.376   0.397   0.397   0.375   0.370   0.354   0.379   0.379   0.388   0.361   0.366   0.354   0.346   0.347   0.364   0.397   0.409   0.410   0.385   0.370   0.354   0.355   0.364   0.363   0.373   0.371   0.356   0.369   0.360   0.366   0.370   0.348   0.336   0.335   0.339   0.336   0.359   0.344   0.353   0.370   0.378   0.384   0.408   0.417   0.409   0.438   0.455   0.486   0.489   0.486   0.494   0.458   0.466   0.447   0.427   0.443   0.452   0.480   0.467   0.428   0.443   0.466   0.439   0.443   0.445   0.412   0.401   0.390   0.390   0.393   0.432   0.436   0.448   0.440   0.452   0.429   0.417   0.400   0.381   0.358   0.357   0.348   0.376   0.367   0.361   0.368   0.382   0.378   0.382   0.378   0.375   0.387   0.389   0.380   0.383   0.381   0.340   0.345   0.330   0.339   0.335   0.331   0.317   0.342   0.362   0.350   0.356   0.348   0.361   0.367   0.370   0.386   0.376   0.368   0.375   0.369   0.377   0.382   0.390   0.371   0.364   0.381   0.358   0.331   0.334   0.347   0.396   0.370   0.382   0.385   0.370   0.377   0.391   0.387   0.386   0.380   0.417   0.368   0.373   0.345   0.361   0.356   0.351   0.368   0.370   0.346   0.359   0.385   0.379   0.394   0.361   0.354   0.353   0.346   0.356   0.352   0.349   0.353   0.370
     1.00    0.382   0.399   0.394   0.407   0.406   0.361   0.367   0.354   0.365   0.375   0.369   0.360   0.359   0.366   0.336   0.361   0.345   0.354   0.364   0.357   0.394   0.347   0.367   0.399   0.371   0.377   0.367   0.375   0.381   0.387   0.370   0.402   0.390   0.400   0.394   0.392   0.380   0.384   0.355   0.380   0.387   0.384   0.369   0.365   0.376   0.352   0.346   0.384   0.398   0.428   0.399   0.394   0.396   0.365   0.348   0.345   0.360   0.346   0.344   0.363   0.358   0.357   0.381   0.398   0.370   0.321   0.335   0.310   0.329   0.325   0.332   0.357   0.360   0.350   0.359   0.382   0.407   0.417   0.426   0.445   0.471   0.465   0.460   0.479   0.467   0.480   0.438   0.431   0.430   0.417   0.407   0.445   0.432   0.428   0.418   0.411   0.421   0.442   0.428   0.435   0.397   0.390   0.397   0.404   0.394   0.401   0.420   0.428   0.407   0.405   0.393   0.344   0.351   0.346   0.331   0.322   0.359   0.371   0.375   0.369   0.368   0.380   0.373   0.399   0.401   0.395   0.410   0.379   0.389   0.370   0.354   0.342   0.328   0.337   0.345   0.352   0.330   0.317   0.331   0.335   0.331   0.316   0.336   0.374   0.398   0.380   0.374   0.369   0.351   0.351   0.374   0.370   0.367   0.387   0.371   0.357   0.340   0.341   0.361   0.374   0.399   0.407   0.396   0.364   0.372   0.393   0.381   0.383   0.389   0.391   0.383   0.377   0.356   0.359   0.361   0.370   0.352   0.352   0.357   0.374   0.362   0.380   0.383   0.369   0.370   0.361   0.334   0.354   0.359   0.361   0.369   0.376   0.391

   Height   Standard deviation at grid points for the v component:
   354.40    0.315   0.314   0.318   0.311   0.292   0.298   0.290   0.269   0.268   0.273   0.284   0.264   0.281   0.285   0.287   0.285   0.286   0.272   0.280   0.285   0.298   0.297   0.278   0.309   0.322   0.319   0.326   0.316   0.293   0.300   0.292   0.292   0.282   0.302   0.308   0.289   0.293   0.310   0.300   0.308   0.307   0.296   0.300   0.316   0.314   0.330   0.328   0.309   0.325   0.337   0.335   0.335   0.323   0.328   0.318   0.331   0.343   0.350   0.348   0.360   0.354   0.331   0.313   0.314   0.313   0.307   0.293   0.287   0.290   0.301   0.319   0.316   0.315   0.297   0.297   0.312   0.309   0.289   0.300   0.317   0.300   0.334   0.337   0.331   0.327   0.331   0.321   0.333   0.316   0.313   0.303   0.288   0.286   0.288   0.309   0.319   0.317   0.292   0.300   0.304   0.304   0.318   0.331   0.321   0.326   0.321   0.329   0.327   0.316   0.317   0.316   0.301   0.288   0.302   0.308   0.301   0.302   0.302   0.296   0.311   0.318   0.311   0.325   0.324   0.309   0.315   0.315   0.334   0.332   0.341   0.345   0.358   0.350   0.349   0.336   0.342   0.330   0.324   0.318   0.319   0.325   0.318   0.311   0.315   0.305   0.311   0.327   0.340   0.345   0.326   0.341   0.332   0.327   0.324   0.320   0.324   0.325   0.333   0.316   0.313   0.308   0.296   0.276   0.284   0.288   0.297   0.302   0.302   0.277   0.297   0.284   0.287   0.303   0.315   0.328   0.340   0.340   0.333   0.323   0.326   0.334   0.331   0.325   0.307   0.298   0.308   0.292   0.290   0.292   0.311   0.307   0.298   0.315
   345.10    0.312   0.314   0.318   0.314   0.311   0.312   0.296   0.281   0.275   0.292   0.294   0.295   0.293   0.285   0.292   0.294   0.294   0.275   0.284   0.285   0.301   0.314   0.303   0.306   0.329   0.332   0.331   0.334   0.304   0.288   0.295   0.284   0.287   0.281   0.279   0.287   0.301   0.294   0.290   0.289   0.306   0.339   0.329   0.335   0.347   0.353   0.337   0.322   0.342   0.337   0.343   0.336   0.323   0.321   0.342   0.337   0.338   0.347   0.334   0.343   0.327   0.331   0.324   0.313   0.308   0.294   0.283   0.282   0.284   0.310   0.319   0.305   0.317   0.314   0.297   0.301   0.306   0.300   0.310   0.322   0.305   0.307   0.330   0.327   0.333   0.332   0.316   0.319   0.303   0.329   0.302   0.303   0.301   0.289   0.304   0.311   0.324   0.328   0.291   0.289   0.302   0.315   0.325   0.334   0.348   0.339   0.343   0.339   0.325   0.318   0.304   0.295   0.292   0.293   0.306   0.298   0.294   0.297   0.302   0.307   0.299   0.314   0.328   0.328   0.317   0.328   0.327   0.327   0.338   0.361   0.357   0.356   0.348   0.331   0.322   0.324   0.325   0.338   0.324   0.330   0.330   0.339   0.319   0.308   0.299   0.296   0.316   0.344   0.328   0.336   0.326   0.339   0.327   0.317   0.327   0.310   0.334   0.319   0.319   0.321   0.330   0.304   0.293   0.284   0.301   0.306   0.291   0.293   0.301   0.298   0.295   0.322   0.308   0.307   0.322   0.332   0.338   0.327   0.325   0.330   0.320   0.324   0.335   0.311   0.292   0.303   0.298   0.314   0.293   0.309   0.312   0.306   0.307
   335.80    0.302   0.308   0.312   0.307   0.296   0.302   0.295   0.289   0.286   0.301   0.298   0.303   0.298   0.295   0.300   0.303   0.296   0.290   0.294   0.303   0.326   0.311   0.318   0.310   0.323   0.316   0.307   0.302   0.304   0.284   0.292   0.303   0.294   0.283   0.276   0.284   0.281   0.286   0.294   0.287   0.312   0.338   0.330   0.335   0.335   0.339   0.335   0.347   0.340   0.330   0.327   0.324   0.316   0.325   0.332   0.331   0.348   0.342   0.345   0.349   0.336   0.335   0.342   0.337   0.308   0.303   0.293   0.305   0.293   0.323   0.321   0.302   0.335   0.313   0.294   0.305   0.299   0.317   0.323   0.311   0.304   0.296   0.307   0.306   0.305   0.292   0.314   0.311   0.312   0.322   0.321   0.322   0.325   0.311   0.296   0.324   0.329   0.304   0.307   0.293   0.316   0.322   0.327   0.343   0.338   0.337   0.320   0.311   0.306   0.307   0.308   0.316   0.302   0.315   0.316   0.310   0.305   0.293   0.316   0.306   0.304   0.323   0.327   0.319   0.330   0.311   0.311   0.331   0.335   0.338   0.337   0.322   0.342   0.332   0.325   0.324   0.315   0.325   0.316   0.327   0.336   0.335   0.333   0.315   0.302   0.310   0.320   0.319   0.320   0.323   0.324   0.336   0.337   0.323   0.304   0.318   0.305   0.313   0.309   0.318   0.331   0.293   0.274   0.291   0.299   0.305   0.302   0.309   0.314   0.317   0.312   0.309   0.308   0.312   0.327   0.329   0.335   0.327   0.329   0.315   0.312   0.320   0.306   0.316   0.311   0.308   0.293   0.303   0.305   0.302   0.306   0.293   0.296
   326.50    0.318   0.313   0.314   0.302   0.308   0.289   0.282   0.278   0.274   0.291   0.300   0.298   0.302   0.312   0.301   0.312   0.292   0.280   0.293   0.307   0.309   0.328   0.323   0.319   0.323   0.337   0.325   0.309   0.302   0.284   0.286   0.297   0.292   0.300   0.291   0.294   0.286   0.287   0.281   0.284   0.304   0.321   0.320   0.333   0.328   0.336   0.344   0.341   0.324   0.329   0.305   0.308   0.316   0.327   0.324   0.334   0.338   0.341   0.338   0.350   0.343   0.345   0.341   0.332   0.323   0.315   0.297   0.289   0.300   0.311   0.312   0.314   0.325   0.317   0.299   0.304   0.304   0.312   0.316   0.319   0.294   0.291   0.291   0.297   0.309   0.308   0.297   0.312   0.330   0.327   0.329   0.309   0.320   0.309   0.301   0.299   0.316   0.294   0.296   0.287   0.307   0.320   0.332   0.326   0.318   0.311   0.294   0.295   0.292   0.303   0.314   0.326   0.305   0.323   0.327   0.320   0.307   0.305   0.297   0.309   0.311   0.309   0.317   0.323   0.333   0.317   0.323   0.341   0.329   0.321   0.321   0.308   0.315   0.340   0.321   0.319   0.322   0.316   0.309   0.325   0.308   0.323   0.312   0.319   0.301   0.308   0.319   0.332   0.346   0.342   0.332   0.328   0.334   0.330   0.315   0.304   0.309   0.302   0.304   0.313   0.319   0.311   0.290   0.285   0.288   0.291   0.297   0.311   0.308   0.322   0.331   0.319   0.327   0.334   0.321   0.324   0.338   0.335   0.337   0.302   0.309   0.305   0.314   0.318   0.315   0.299   0.286   0.285   0.290   0.306   0.305   0.294   0.294
[...]
   103.30    0.187   0.192   0.190   0.193   0.188   0.185   0.187   0.181   0.180   0.188   0.191   0.190   0.189   0.187   0.185   0.190   0.192   0.191   0.193   0.193   0.193   0.189   0.193   0.192   0.181   0.192   0.193   0.193   0.193   0.200   0.200   0.195   0.199   0.202   0.205   0.201   0.210   0.204   0.198   0.187   0.191   0.194   0.195   0.198   0.193   0.195   0.194   0.190   0.193   0.190   0.189   0.185   0.196   0.190   0.198   0.194   0.189   0.193   0.192   0.184   0.189   0.196   0.190   0.185   0.189   0.188   0.187   0.194   0.196   0.189   0.189   0.187   0.189   0.194   0.190   0.181   0.182   0.187   0.191   0.189   0.190   0.195   0.189   0.194   0.184   0.183   0.182   0.184   0.186   0.179   0.188   0.193   0.195   0.194   0.191   0.187   0.184   0.185   0.191   0.192   0.194   0.189   0.187   0.191   0.191   0.191   0.190   0.183   0.180   0.182   0.187   0.187   0.190   0.190   0.194   0.200   0.191   0.193   0.189   0.185   0.183   0.185   0.183   0.184   0.184   0.186   0.186   0.184   0.177   0.180   0.188   0.181   0.185   0.188   0.186   0.187   0.194   0.190   0.184   0.191   0.187   0.182   0.185   0.182   0.184   0.181   0.188   0.191   0.192   0.190   0.196   0.194   0.194   0.192   0.192   0.190   0.181   0.184   0.184   0.190   0.185   0.184   0.183   0.187   0.189   0.187   0.183   0.184   0.183   0.186   0.188   0.181   0.185   0.184   0.187   0.188   0.187   0.189   0.187   0.192   0.189   0.191   0.189   0.191   0.190   0.195   0.190   0.189   0.188   0.180   0.189   0.194   0.192
    94.00    0.178   0.181   0.193   0.193   0.184   0.188   0.184   0.182   0.182   0.190   0.185   0.190   0.189   0.193   0.184   0.180   0.186   0.185   0.184   0.191   0.193   0.191   0.196   0.191   0.195   0.199   0.193   0.190   0.196   0.198   0.199   0.197   0.199   0.198   0.203   0.200   0.203   0.206   0.197   0.190   0.196   0.195   0.191   0.199   0.200   0.204   0.200   0.200   0.191   0.192   0.190   0.191   0.196   0.192   0.188   0.188   0.192   0.193   0.190   0.184   0.188   0.187   0.192   0.187   0.189   0.190   0.186   0.191   0.195   0.188   0.189   0.195   0.192   0.186   0.184   0.187   0.183   0.188   0.195   0.192   0.197   0.202   0.199   0.190   0.191   0.182   0.179   0.184   0.191   0.181   0.185   0.189   0.189   0.195   0.190   0.183   0.182   0.185   0.192   0.190   0.189   0.194   0.199   0.192   0.195   0.191   0.191   0.178   0.188   0.186   0.183   0.182   0.185   0.192   0.196   0.191   0.196   0.193   0.183   0.185   0.178   0.176   0.184   0.185   0.186   0.186   0.190   0.182   0.179   0.182   0.179   0.180   0.183   0.184   0.185   0.183   0.188   0.185   0.195   0.193   0.191   0.185   0.181   0.191   0.194   0.185   0.188   0.186   0.189   0.195   0.195   0.189   0.190   0.189   0.187   0.186   0.186   0.188   0.192   0.190   0.191   0.186   0.190   0.186   0.186   0.183   0.182   0.178   0.183   0.180   0.181   0.180   0.190   0.182   0.181   0.188   0.183   0.183   0.193   0.184   0.185   0.191   0.190   0.189   0.186   0.187   0.189   0.188   0.183   0.189   0.194   0.198   0.191
    84.70    0.181   0.179   0.192   0.192   0.189   0.185   0.185   0.185   0.192   0.191   0.190   0.188   0.187   0.188   0.185   0.188   0.181   0.185   0.188   0.188   0.189   0.186   0.187   0.192   0.194   0.201   0.202   0.191   0.186   0.194   0.200   0.203   0.198   0.201   0.197   0.200   0.197   0.199   0.201   0.206   0.204   0.201   0.194   0.198   0.201   0.196   0.200   0.204   0.202   0.196   0.192   0.195   0.195   0.192   0.190   0.188   0.187   0.184   0.186   0.182   0.181   0.185   0.190   0.195   0.190   0.191   0.200   0.197   0.193   0.196   0.194   0.193   0.185   0.187   0.185   0.182   0.185   0.192   0.191   0.194   0.198   0.202   0.198   0.192   0.190   0.190   0.186   0.185   0.190   0.190   0.186   0.190   0.191   0.193   0.193   0.190   0.190   0.193   0.198   0.195   0.193   0.199   0.204   0.205   0.200   0.191   0.185   0.186   0.191   0.191   0.185   0.183   0.186   0.194   0.197   0.191   0.195   0.193   0.186   0.185   0.187   0.182   0.186   0.184   0.183   0.185   0.190   0.191   0.184   0.182   0.184   0.181   0.181   0.174   0.184   0.187   0.183   0.186   0.190   0.191   0.193   0.187   0.182   0.187   0.189   0.186   0.185   0.186   0.188   0.191   0.187   0.193   0.190   0.187   0.190   0.188   0.186   0.194   0.191   0.188   0.196   0.192   0.188   0.182   0.185   0.190   0.185   0.186   0.187   0.187   0.182   0.185   0.191   0.190   0.183   0.187   0.186   0.187   0.199   0.192   0.184   0.189   0.194   0.195   0.192   0.193   0.194   0.193   0.194   0.189   0.195   0.187   0.193
    75.40    0.181   0.184   0.185   0.185   0.183   0.186   0.180   0.183   0.193   0.192   0.185   0.182   0.185   0.183   0.184   0.186   0.185   0.194   0.193   0.188   0.185   0.187   0.179   0.189   0.194   0.193   0.194   0.194   0.198   0.195   0.197   0.200   0.197   0.203   0.197   0.201   0.199   0.197   0.203   0.198   0.198   0.199   0.198   0.194   0.195   0.195   0.198   0.196   0.197   0.189   0.191   0.195   0.191   0.183   0.183   0.191   0.195   0.187   0.187   0.189   0.194   0.187   0.188   0.195   0.195   0.195   0.193   0.192   0.192   0.199   0.195   0.179   0.182   0.180   0.188   0.184   0.182   0.189   0.190   0.196   0.194   0.201   0.194   0.190   0.198   0.187   0.184   0.180   0.180   0.189   0.192   0.193   0.196   0.193   0.193   0.195   0.189   0.191   0.199   0.202   0.198   0.197   0.205   0.199   0.194   0.188   0.194   0.189   0.193   0.195   0.193   0.195   0.193   0.200   0.199   0.198   0.192   0.189   0.186   0.188   0.194   0.192   0.190   0.182   0.185   0.189   0.190   0.183   0.184   0.181   0.191   0.185   0.180   0.180   0.184   0.180   0.183   0.183   0.192   0.192   0.190   0.187   0.178   0.181   0.180   0.185   0.185   0.185   0.186   0.186   0.190   0.187   0.191   0.186   0.189   0.186   0.189   0.187   0.188   0.188   0.189   0.194   0.185   0.185   0.188   0.190   0.189   0.189   0.187   0.181   0.183   0.185   0.185   0.187   0.187   0.185   0.189   0.187   0.188   0.188   0.188   0.190   0.192   0.191   0.185   0.192   0.189   0.187   0.192   0.198   0.198   0.195   0.194
    66.10    0.189   0.186   0.184   0.184   0.188   0.186   0.186   0.188   0.196   0.192   0.186   0.182   0.180   0.183   0.186   0.188   0.190   0.187   0.194   0.189   0.185   0.187   0.179   0.187   0.195   0.194   0.194   0.198   0.194   0.194   0.191   0.194   0.194   0.200   0.199   0.199   0.194   0.195   0.196   0.192   0.184   0.187   0.190   0.194   0.190   0.193   0.198   0.201   0.200   0.188   0.187   0.191   0.187   0.189   0.186   0.185   0.190   0.185   0.193   0.191   0.197   0.193   0.190   0.188   0.191   0.193   0.196   0.189   0.192   0.193   0.189   0.186   0.188   0.190   0.185   0.185   0.183   0.191   0.189   0.186   0.195   0.198   0.192   0.192   0.193   0.189   0.188   0.180   0.179   0.191   0.197   0.192   0.197   0.187   0.190   0.189   0.197   0.199   0.202   0.198   0.198   0.196   0.201   0.201   0.196   0.192   0.189   0.193   0.194   0.191   0.193   0.196   0.195   0.200   0.200   0.201   0.191   0.192   0.191   0.189   0.190   0.192   0.187   0.188   0.191   0.185   0.185   0.184   0.176   0.183   0.179   0.180   0.181   0.184   0.188   0.181   0.181   0.184   0.189   0.193   0.191   0.182   0.173   0.183   0.177   0.176   0.184   0.179   0.186   0.185   0.185   0.187   0.186   0.183   0.188   0.192   0.189   0.187   0.187   0.191   0.198   0.191   0.184   0.188   0.192   0.189   0.185   0.185   0.181   0.188   0.180   0.187   0.186   0.187   0.190   0.186   0.189   0.192   0.188   0.190   0.188   0.189   0.195   0.190   0.193   0.192   0.191   0.187   0.188   0.194   0.196   0.201   0.200
    56.80    0.182   0.181   0.186   0.190   0.188   0.188   0.188   0.184   0.184   0.183   0.181   0.180   0.177   0.176   0.181   0.186   0.191   0.187   0.188   0.192   0.188   0.183   0.183   0.191   0.193   0.191   0.201   0.201   0.196   0.188   0.191   0.186   0.193   0.198   0.195   0.197   0.199   0.195   0.196   0.191   0.182   0.183   0.187   0.183   0.192   0.196   0.194   0.199   0.196   0.191   0.190   0.190   0.187   0.188   0.183   0.185   0.187   0.194   0.195   0.195   0.190   0.192   0.188   0.189   0.184   0.192   0.190   0.187   0.190   0.188   0.189   0.185   0.189   0.188   0.187   0.181   0.187   0.189   0.187   0.191   0.193   0.192   0.193   0.191   0.196   0.196   0.188   0.185   0.178   0.180   0.189   0.188   0.192   0.194   0.196   0.195   0.202   0.203   0.199   0.196   0.192   0.188   0.196   0.197   0.195   0.191   0.190   0.190   0.197   0.189   0.190   0.189   0.197   0.191   0.195   0.192   0.185   0.191   0.194   0.198   0.190   0.184   0.186   0.185   0.193   0.191   0.181   0.187   0.180   0.182   0.184   0.179   0.180   0.183   0.186   0.186   0.185   0.187   0.190   0.193   0.187   0.178   0.178   0.179   0.179   0.179   0.181   0.182   0.181   0.187   0.178   0.186   0.190   0.185   0.190   0.189   0.192   0.192   0.189   0.190   0.192   0.188   0.187   0.189   0.191   0.194   0.188   0.185   0.185   0.191   0.191   0.186   0.188   0.191   0.192   0.187   0.189   0.188   0.184   0.187   0.190   0.187   0.188   0.191   0.189   0.185   0.187   0.192   0.189   0.193   0.199   0.202   0.199
    47.50    0.182   0.177   0.185   0.189   0.190   0.197   0.184   0.184   0.184   0.185   0.183   0.177   0.179   0.175   0.177   0.184   0.187   0.187   0.190   0.188   0.190   0.187   0.193   0.192   0.196   0.194   0.197   0.200   0.199   0.193   0.189   0.187   0.192   0.193   0.193   0.192   0.191   0.192   0.195   0.186   0.184   0.184   0.186   0.190   0.190   0.191   0.197   0.190   0.189   0.185   0.187   0.187   0.187   0.187   0.180   0.181   0.182   0.182   0.191   0.190   0.195   0.195   0.188   0.180   0.179   0.185   0.183   0.193   0.190   0.191   0.190   0.186   0.184   0.183   0.186   0.183   0.185   0.180   0.182   0.191   0.191   0.190   0.195   0.194   0.194   0.194   0.189   0.187   0.189   0.183   0.186   0.187   0.194   0.189   0.192   0.193   0.195   0.204   0.202   0.202   0.187   0.188   0.194   0.196   0.191   0.189   0.191   0.190   0.192   0.188   0.185   0.193   0.188   0.183   0.190   0.191   0.186   0.190   0.194   0.191   0.185   0.187   0.184   0.188   0.191   0.195   0.186   0.187   0.186   0.179   0.180   0.187   0.183   0.179   0.178   0.183   0.183   0.183   0.189   0.189   0.182   0.181   0.185   0.184   0.183   0.181   0.184   0.186   0.188   0.185   0.183   0.185   0.187   0.191   0.190   0.190   0.183   0.185   0.187   0.187   0.187   0.187   0.182   0.188   0.186   0.188   0.190   0.191   0.185   0.189   0.181   0.176   0.187   0.188   0.186   0.183   0.181   0.186   0.180   0.188   0.181   0.188   0.190   0.189   0.188   0.184   0.187   0.192   0.189   0.193   0.191   0.200   0.193
    38.20    0.187   0.183   0.186   0.188   0.190   0.192   0.184   0.186   0.192   0.186   0.180   0.183   0.181   0.185   0.186   0.180   0.184   0.193   0.191   0.197   0.196   0.193   0.189   0.192   0.195   0.189   0.189   0.193   0.197   0.191   0.193   0.191   0.190   0.194   0.188   0.187   0.189   0.181   0.186   0.185   0.183   0.187   0.190   0.188   0.192   0.195   0.198   0.196   0.183   0.190   0.186   0.182   0.188   0.187   0.184   0.182   0.183   0.191   0.192   0.190   0.192   0.188   0.182   0.181   0.189   0.185   0.188   0.194   0.199   0.197   0.194   0.190   0.179   0.182   0.183   0.187   0.185   0.188   0.183   0.190   0.182   0.185   0.188   0.193   0.197   0.194   0.189   0.190   0.192   0.188   0.185   0.191   0.198   0.192   0.193   0.189   0.193   0.194   0.199   0.193   0.183   0.191   0.192   0.196   0.187   0.183   0.186   0.193   0.194   0.196   0.195   0.194   0.191   0.189   0.197   0.195   0.181   0.187   0.191   0.193   0.190   0.189   0.182   0.185   0.187   0.187   0.184   0.184   0.183   0.183   0.179   0.184   0.184   0.181   0.185   0.181   0.186   0.175   0.182   0.180   0.183   0.185   0.186   0.191   0.191   0.187   0.184   0.185   0.187   0.181   0.186   0.185   0.188   0.191   0.197   0.191   0.183   0.194   0.192   0.187   0.186   0.191   0.191   0.187   0.190   0.191   0.184   0.188   0.191   0.191   0.185   0.177   0.184   0.184   0.182   0.182   0.181   0.182   0.180   0.187   0.187   0.188   0.190   0.189   0.186   0.181   0.186   0.192   0.193   0.197   0.191   0.200   0.193
    28.90    0.184   0.183   0.188   0.191   0.188   0.189   0.187   0.179   0.186   0.185   0.179   0.180   0.186   0.185   0.186   0.183   0.181   0.190   0.197   0.196   0.194   0.196   0.193   0.190   0.187   0.182   0.187   0.189   0.197   0.185   0.194   0.188   0.189   0.186   0.191   0.191   0.190   0.183   0.183   0.185   0.182   0.183   0.192   0.195   0.192   0.193   0.192   0.194   0.186   0.184   0.182   0.185   0.186   0.186   0.181   0.190   0.188   0.201   0.200   0.196   0.191   0.189   0.185   0.184   0.190   0.188   0.196   0.199   0.199   0.197   0.199   0.191   0.187   0.186   0.189   0.190   0.187   0.191   0.188   0.191   0.187   0.184   0.190   0.199   0.189   0.189   0.186   0.183   0.184   0.186   0.184   0.188   0.191   0.191   0.192   0.190   0.194   0.193   0.183   0.186   0.190   0.188   0.190   0.191   0.188   0.188   0.188   0.184   0.191   0.191   0.188   0.192   0.193   0.200   0.200   0.189   0.186   0.187   0.185   0.194   0.188   0.188   0.189   0.191   0.183   0.186   0.187   0.189   0.191   0.184   0.185   0.184   0.184   0.189   0.186   0.184   0.182   0.179   0.181   0.185   0.184   0.184   0.189   0.188   0.182   0.185   0.184   0.190   0.192   0.190   0.191   0.184   0.181   0.187   0.192   0.193   0.195   0.197   0.191   0.185   0.191   0.192   0.194   0.184   0.190   0.198   0.190   0.190   0.195   0.188   0.186   0.186   0.184   0.185   0.177   0.181   0.184   0.186   0.182   0.181   0.181   0.180   0.184   0.184   0.181   0.185   0.187   0.186   0.194   0.190   0.194   0.192   0.189
    19.60    0.186   0.194   0.190   0.189   0.187   0.177   0.184   0.182   0.176   0.180   0.178   0.186   0.183   0.191   0.187   0.186   0.187   0.182   0.189   0.192   0.192   0.192   0.197   0.189   0.189   0.186   0.180   0.186   0.196   0.193   0.185   0.194   0.189   0.189   0.190   0.183   0.188   0.186   0.185   0.183   0.185   0.187   0.192   0.192   0.187   0.192   0.194   0.191   0.189   0.187   0.191   0.189   0.185   0.189   0.187   0.188   0.191   0.195   0.192   0.192   0.193   0.194   0.187   0.187   0.186   0.187   0.189   0.199   0.195   0.193   0.196   0.189   0.182   0.180   0.186   0.184   0.196   0.195   0.188   0.184   0.186   0.191   0.190   0.197   0.190   0.185   0.189   0.191   0.190   0.191   0.183   0.186   0.193   0.191   0.193   0.188   0.194   0.193   0.187   0.191   0.187   0.193   0.184   0.186   0.187   0.186   0.188   0.186   0.188   0.186   0.193   0.194   0.190   0.197   0.191   0.193   0.187   0.189   0.189   0.194   0.179   0.187   0.185   0.188   0.186   0.188   0.186   0.189   0.185   0.178   0.183   0.192   0.182   0.179   0.184   0.186   0.184   0.181   0.183   0.184   0.182   0.185   0.185   0.177   0.183   0.185   0.183   0.184   0.189   0.191   0.186   0.185   0.185   0.188   0.188   0.189   0.197   0.197   0.196   0.198   0.188   0.187   0.194   0.191   0.190   0.196   0.196   0.195   0.197   0.193   0.190   0.181   0.187   0.190   0.186   0.190   0.180   0.179   0.183   0.178   0.176   0.178   0.176   0.183   0.177   0.184   0.186   0.188   0.191   0.195   0.188   0.190   0.186
    10.30    0.185   0.189   0.192   0.190   0.187   0.181   0.179   0.178   0.178   0.182   0.186   0.189   0.192   0.188   0.183   0.179   0.186   0.189   0.193   0.195   0.194   0.190   0.190   0.188   0.188   0.188   0.186   0.187   0.190   0.190   0.188   0.193   0.192   0.194   0.191   0.184   0.186   0.181   0.178   0.186   0.192   0.185   0.192   0.193   0.196   0.194   0.195   0.189   0.190   0.194   0.196   0.194   0.185   0.188   0.190   0.194   0.193   0.190   0.192   0.187   0.191   0.195   0.190   0.186   0.192   0.196   0.193   0.192   0.191   0.193   0.190   0.185   0.181   0.180   0.181   0.181   0.190   0.192   0.191   0.186   0.187   0.189   0.191   0.198   0.195   0.186   0.190   0.189   0.187   0.192   0.190   0.184   0.183   0.185   0.185   0.192   0.193   0.191   0.186   0.190   0.182   0.176   0.183   0.180   0.184   0.182   0.187   0.187   0.185   0.183   0.193   0.199   0.197   0.192   0.194   0.201   0.200   0.198   0.191   0.187   0.186   0.188   0.184   0.187   0.184   0.180   0.183   0.185   0.187   0.188   0.185   0.182   0.185   0.184   0.186   0.183   0.182   0.181   0.184   0.181   0.181   0.177   0.187   0.181   0.178   0.180   0.180   0.188   0.188   0.189   0.180   0.180   0.184   0.187   0.186   0.190   0.197   0.199   0.196   0.187   0.188   0.184   0.182   0.187   0.190   0.190   0.202   0.199   0.200   0.194   0.192   0.192   0.185   0.192   0.191   0.180   0.182   0.183   0.187   0.180   0.183   0.179   0.176   0.180   0.181   0.180   0.182   0.186   0.194   0.196   0.185   0.194   0.190
     1.00    0.190   0.189   0.189   0.186   0.188   0.181   0.178   0.177   0.178   0.185   0.182   0.186   0.187   0.187   0.185   0.185   0.185   0.183   0.193   0.186   0.189   0.187   0.184   0.188   0.191   0.192   0.190   0.189   0.192   0.193   0.193   0.196   0.195   0.193   0.186   0.189   0.189   0.183   0.184   0.186   0.190   0.187   0.190   0.195   0.193   0.199   0.198   0.198   0.197   0.198   0.195   0.192   0.184   0.182   0.187   0.187   0.191   0.187   0.189   0.189   0.191   0.187   0.187   0.186   0.190   0.195   0.196   0.194   0.195   0.194   0.190   0.187   0.178   0.181   0.184   0.185   0.183   0.192   0.191   0.188   0.190   0.184   0.189   0.193   0.191   0.187   0.181   0.188   0.199   0.193   0.190   0.190   0.192   0.182   0.186   0.190   0.195   0.192   0.185   0.187   0.179   0.182   0.181   0.181   0.182   0.187   0.187   0.188   0.184   0.186   0.187   0.192   0.199   0.191   0.197   0.198   0.198   0.192   0.195   0.188   0.191   0.187   0.186   0.185   0.180   0.176   0.180   0.180   0.182   0.182   0.184   0.183   0.177   0.184   0.187   0.187   0.183   0.187   0.185   0.180   0.183   0.181   0.182   0.181   0.185   0.178   0.181   0.182   0.186   0.186   0.185   0.184   0.182   0.184   0.190   0.189   0.191   0.194   0.193   0.191   0.183   0.183   0.181   0.178   0.187   0.192   0.194   0.193   0.191   0.196   0.199   0.199   0.192   0.194   0.187   0.180   0.183   0.187   0.189   0.184   0.185   0.185   0.177   0.179   0.179   0.180   0.181   0.181   0.186   0.191   0.189   0.189   0.194

   Mean standard deviation across all grid points:
      u component:    0.376 m/s
      v component:    0.308 m/s
      w component:    0.189 m/s


U-component (X) statistics from the interpolated hub point:

   Mean =   9.7063 m/s
   TI   =   4.4231 %


Processing complete.  1.89945E+05 CPU seconds used.
