
This summary file was generated by TurbSim (from OpenFAST-v3.5.3) on 20-Apr-2025 at 12:02:58.


Runtime Options:

1682697194  Random seed #1
    RANLUX  Type of random number generator
         F  Output binary HH turbulence parameters?
         F  Output formatted turbulence parameters?
         F  Output AeroDyn HH files?
         T  Output AeroDyn FF files?
         F  Output BLADED FF files?
         F  Output tower data?
         F  Output HAWC FF files?
         F  Output formatted FF files?
         T  Output coherent turbulence time step file?
 0 -  NONE  IEC turbulence models scaled to exact specified standard deviation


Turbine/Model Specifications:

        37  Vertical grid-point matrix dimension
        35  Horizontal grid-point matrix dimension
     0.250  Time step [seconds]
   900.000  Analysis time [seconds]
   900.000  Usable output time [seconds]
    89.350  Hub height [m]
   167.400  Grid height [m]
   158.100  Grid width [m]
     0.000  Vertical flow angle [degrees]
     0.000  Horizontal flow angle [degrees]


Meteorological Boundary Conditions:

    TIMESR  User-input time series spectral model
       N/A  IEC standard
       N/A  IEC turbulence characteristic
       N/A  IEC turbulence type
       N/A  IEC Extreme Turbulence Model (ETM) "c" parameter [m/s]
       PL   Wind profile type
    90.000  Reference height [m]
    10.000  Reference wind speed [m/s]
       N/A  Jet height [m]
     0.120  Power law exponent
     0.030  Surface roughness length [m]


Non-IEC Meteorological Boundary Conditions:

    45.000  Site latitude [degrees]
     0.050  Gradient Richardson number
     0.480  Friction or shear velocity [m/s]
       N/A  Mixing layer depth [m]
       N/A  Mean hub u'w' Reynolds stress
       N/A  Mean hub u'v' Reynolds stress
       N/A  Mean hub v'w' Reynolds stress


Spatial Coherence Models:

       IEC  u-component coherence model
       IEC  v-component coherence model
       IEC  w-component coherence model
(   12.000, 0.353E-03)  u-component coherence parameters
(   12.000, 0.353E-03)  v-component coherence parameters
(   12.000, 0.353E-03)  w-component coherence parameters
       N/A  Coherence exponent


Coherent Turbulence Scaling Parameters:

.\EventData
            Name of the path containing the coherent turbulence data files
       les  Type of coherent turbulence data files
     0.500  Disturbance scale (ratio of wave height to rotor diameter)
     0.500  Fractional location of tower centerline from right
     0.000  Fractional location of hub height from the bottom of the dataset
    30.000  Minimum start time for coherent structures [seconds]


Profiles from User-Defined Time-Series Input:

  Height   Wind Speed   Horizontal Angle   Vertical Angle
   (m)        (m/s)          (deg)              (deg)    
  ------   ----------   ----------------   --------------
   94.00      10.00          -0.63               -0.00


You have requested that the following file(s) be generated:

   /kfs3/scratch/agupta/Projects/RL_Incubator/FinalRuns_Veer/Seed4/./FFSim_Seed4/Cond00_v10.0_PL0.12_TI3.0/Case3_wdirp06/Seed_5/TurbSim/HighT9.bts (AeroDyn/TurbSim full-field wind file)


Turbulence Simulation Scaling Parameter Summary:

   Turbulence model used                            =  User-input time series
   Gradient Richardson number                       =    0.050
   Monin-Obukhov (M-O) z/L parameter                =    0.067
   Monin-Obukhov (M-O) length scale                 = 1340.250 m
   Mean wind speed at hub height                    =    9.991 m/s

   Wind profile type                                =  Power law
   Power law exponent                               =    0.120
   Mean shear across rotor disk                     =    0.019 (m/s)/m
   Assumed rotor diameter                           =  158.100 m
   Surface roughness length                         =    0.030 m

   Nyquist frequency of turbulent wind field        =    2.000 Hz

   Number of time steps in the FFT                  =     3600
   Number of time steps output                      =     3600
   Number of points simulated                       =     1296


Mean Flow Angles:

   Vertical   =   0.0 degrees
   Horizontal =   0.0 degrees

Mean Wind Speed Profile:

   Height    Wind Speed   Horizontal Angle  Vertical Angle  U-comp (X)   V-comp (Y)   W-comp (Z)
     (m)        (m/s)         (degrees)       (degrees)       (m/s)        (m/s)        (m/s)   
   ------    ----------   ----------------  --------------  ----------   ----------   ----------
    168.4       10.78            0.00            0.00         10.78         0.00         0.00
    163.7       10.74            0.00            0.00         10.74         0.00         0.00
    159.1       10.71            0.00            0.00         10.71         0.00         0.00
    154.4       10.67            0.00            0.00         10.67         0.00         0.00
    149.8       10.63            0.00            0.00         10.63         0.00         0.00
    145.1       10.59            0.00            0.00         10.59         0.00         0.00
    140.5       10.55            0.00            0.00         10.55         0.00         0.00
    135.8       10.51            0.00            0.00         10.51         0.00         0.00
    131.2       10.46            0.00            0.00         10.46         0.00         0.00
    126.5       10.42            0.00            0.00         10.42         0.00         0.00
    121.9       10.37            0.00            0.00         10.37         0.00         0.00
    117.2       10.32            0.00            0.00         10.32         0.00         0.00
    112.6       10.27            0.00            0.00         10.27         0.00         0.00
    107.9       10.22            0.00            0.00         10.22         0.00         0.00
    103.3       10.17            0.00            0.00         10.17         0.00         0.00
     98.6       10.11            0.00            0.00         10.11         0.00         0.00
     94.0       10.05            0.00            0.00         10.05         0.00         0.00
     89.3        9.99            0.00            0.00          9.99         0.00         0.00
     84.7        9.93            0.00            0.00          9.93         0.00         0.00
     80.0        9.86            0.00            0.00          9.86         0.00         0.00
     75.4        9.79            0.00            0.00          9.79         0.00         0.00
     70.7        9.72            0.00            0.00          9.72         0.00         0.00
     66.1        9.64            0.00            0.00          9.64         0.00         0.00
     61.4        9.55            0.00            0.00          9.55         0.00         0.00
     56.8        9.46            0.00            0.00          9.46         0.00         0.00
     52.1        9.37            0.00            0.00          9.37         0.00         0.00
     47.5        9.26            0.00            0.00          9.26         0.00         0.00
     42.8        9.15            0.00            0.00          9.15         0.00         0.00
     38.2        9.02            0.00            0.00          9.02         0.00         0.00
     33.5        8.88            0.00            0.00          8.88         0.00         0.00
     28.9        8.73            0.00            0.00          8.73         0.00         0.00
     24.2        8.54            0.00            0.00          8.54         0.00         0.00
     19.6        8.33            0.00            0.00          8.33         0.00         0.00
     14.9        8.06            0.00            0.00          8.06         0.00         0.00
     10.3        7.71            0.00            0.00          7.71         0.00         0.00
      5.6        7.17            0.00            0.00          7.17         0.00         0.00
      1.0        5.83            0.00            0.00          5.83         0.00         0.00


Harvested Random Seeds after Generation of the Random Numbers:

     65026800 K 1
            0 K 2


Hub-Height Simulated Turbulence Statistical Summary:

   Type of Wind        Min (m/s)   Mean (m/s)    Max (m/s)  Sigma (m/s)       TI (%)
   ----------------    ---------   ----------    ---------  -----------       ------
   Longitudinal (u)         8.99         9.99        10.99        0.290        2.907
   Lateral (v)             -0.74        -0.00         0.76        0.227        2.277
   Vertical (w)            -0.52         0.00         0.49        0.145        1.451
   U component              8.99         9.99        10.99        0.290        2.907
   V component             -0.74        -0.00         0.76        0.227        2.277
   W component             -0.52         0.00         0.49        0.145        1.451
   Horizontal (U&V)         9.00         9.99        10.99        0.290        2.907
   Total                    9.00         9.99        10.99        0.290        2.906

                       Min Reynolds     Mean Reynolds    Max Reynolds    Correlation
   Product             Stress (m/s)^2   Stress (m/s)^2   Stress (m/s)^2  Coefficient
   ----------------    --------------   --------------   --------------  -----------
   u'w'                     -0.244             0.001             0.332         0.014
   u'v'                     -0.424             0.004             0.415         0.054
   v'w'                     -0.206            -0.000             0.261        -0.006


   Friction Velocity (Ustar)  =      0.024 m/s
   Maximum Instantaneous TKE  =      0.583 (m/s)^2
   Maximum Instantaneous CTKE =      0.222 (m/s)^2


Grid Point Variance Summary:

   Y-coord  -79.05  -74.40  -69.75  -65.10  -60.45  -55.80  -51.15  -46.50  -41.85  -37.20  -32.55  -27.90  -23.25  -18.60  -13.95   -9.30   -4.65    0.00    4.65    9.30   13.95   18.60   23.25   27.90   32.55   37.20   41.85   46.50   51.15   55.80   60.45   65.10   69.75   74.40   79.05

   Height   Standard deviation at grid points for the u component:
   168.40    0.261   0.262   0.268   0.253   0.255   0.258   0.265   0.254   0.249   0.240   0.243   0.243   0.237   0.238   0.233   0.251   0.255   0.269   0.259   0.266   0.257   0.252   0.270   0.273   0.279   0.279   0.293   0.288   0.287   0.267   0.285   0.269   0.272   0.283   0.294
   163.75    0.252   0.250   0.245   0.259   0.257   0.243   0.250   0.253   0.250   0.243   0.242   0.258   0.258   0.259   0.252   0.253   0.254   0.259   0.273   0.269   0.268   0.266   0.276   0.286   0.281   0.266   0.271   0.287   0.275   0.278   0.272   0.282   0.272   0.277   0.275
   159.10    0.260   0.246   0.250   0.256   0.260   0.248   0.244   0.248   0.238   0.238   0.230   0.257   0.263   0.273   0.267   0.260   0.269   0.272   0.278   0.268   0.268   0.258   0.284   0.273   0.279   0.277   0.272   0.281   0.275   0.286   0.258   0.254   0.255   0.249   0.266
   154.45    0.251   0.250   0.248   0.249   0.236   0.229   0.242   0.238   0.257   0.250   0.246   0.249   0.262   0.269   0.267   0.269   0.295   0.275   0.273   0.277   0.275   0.254   0.266   0.283   0.280   0.276   0.268   0.272   0.276   0.264   0.272   0.256   0.252   0.247   0.274
   149.80    0.246   0.254   0.246   0.247   0.252   0.243   0.251   0.245   0.261   0.254   0.253   0.256   0.256   0.266   0.255   0.270   0.262   0.280   0.266   0.271   0.280   0.273   0.273   0.266   0.270   0.266   0.261   0.286   0.260   0.267   0.276   0.249   0.272   0.272   0.270
   145.15    0.263   0.255   0.236   0.244   0.261   0.246   0.261   0.260   0.257   0.267   0.267   0.275   0.270   0.255   0.257   0.249   0.265   0.265   0.274   0.265   0.285   0.280   0.273   0.273   0.270   0.267   0.277   0.269   0.278   0.268   0.257   0.262   0.261   0.271   0.282
   140.50    0.261   0.248   0.258   0.251   0.251   0.246   0.247   0.241   0.262   0.266   0.290   0.275   0.272   0.276   0.276   0.264   0.267   0.262   0.261   0.269   0.275   0.280   0.283   0.274   0.265   0.279   0.275   0.276   0.270   0.271   0.251   0.267   0.273   0.265   0.277
   135.85    0.258   0.250   0.260   0.250   0.264   0.251   0.264   0.267   0.271   0.261   0.284   0.289   0.286   0.294   0.295   0.290   0.261   0.266   0.254   0.274   0.296   0.289   0.284   0.268   0.259   0.272   0.277   0.283   0.272   0.270   0.252   0.257   0.257   0.254   0.264
   131.20    0.256   0.235   0.247   0.279   0.262   0.257   0.275   0.292   0.299   0.289   0.281   0.266   0.278   0.284   0.283   0.277   0.282   0.273   0.261   0.262   0.258   0.262   0.271   0.258   0.262   0.268   0.274   0.279   0.265   0.266   0.251   0.245   0.247   0.260   0.279
   126.55    0.241   0.243   0.246   0.258   0.270   0.268   0.279   0.305   0.298   0.300   0.301   0.289   0.291   0.285   0.287   0.270   0.264   0.264   0.257   0.248   0.247   0.239   0.245   0.256   0.253   0.265   0.268   0.272   0.264   0.252   0.253   0.235   0.256   0.277   0.291
   121.90    0.241   0.253   0.238   0.253   0.278   0.278   0.285   0.294   0.316   0.299   0.314   0.295   0.280   0.274   0.282   0.265   0.268   0.255   0.240   0.237   0.219   0.231   0.238   0.243   0.263   0.270   0.272   0.288   0.251   0.252   0.255   0.237   0.249   0.279   0.294
   117.25    0.254   0.250   0.235   0.248   0.256   0.277   0.296   0.303   0.317   0.306   0.296   0.296   0.277   0.278   0.300   0.278   0.266   0.268   0.253   0.240   0.239   0.238   0.229   0.252   0.267   0.281   0.275   0.271   0.268   0.256   0.261   0.255   0.276   0.275   0.294
   112.60    0.258   0.254   0.251   0.236   0.266   0.276   0.289   0.299   0.304   0.322   0.314   0.301   0.297   0.291   0.288   0.293   0.277   0.265   0.272   0.257   0.250   0.239   0.248   0.265   0.270   0.256   0.265   0.265   0.259   0.265   0.271   0.272   0.282   0.300   0.291
   107.95    0.256   0.265   0.251   0.274   0.266   0.263   0.283   0.284   0.311   0.318   0.297   0.293   0.285   0.284   0.276   0.288   0.269   0.270   0.275   0.260   0.245   0.243   0.244   0.270   0.264   0.269   0.262   0.245   0.249   0.246   0.265   0.271   0.270   0.288   0.287
   103.30    0.254   0.242   0.254   0.250   0.274   0.270   0.272   0.280   0.296   0.287   0.295   0.289   0.289   0.299   0.283   0.283   0.286   0.283   0.289   0.275   0.259   0.266   0.279   0.285   0.274   0.272   0.263   0.248   0.243   0.248   0.260   0.272   0.274   0.283   0.275
    98.65    0.255   0.244   0.245   0.246   0.259   0.265   0.255   0.265   0.278   0.286   0.298   0.293   0.303   0.305   0.287   0.287   0.272   0.289   0.286   0.279   0.261   0.298   0.296   0.281   0.276   0.264   0.266   0.260   0.253   0.258   0.246   0.257   0.266   0.279   0.295
    94.00    0.258   0.269   0.252   0.249   0.258   0.265   0.269   0.269   0.261   0.272   0.291   0.293   0.295   0.306   0.301   0.304   0.282   0.291   0.283   0.289   0.301   0.308   0.299   0.296   0.287   0.258   0.262   0.249   0.250   0.252   0.253   0.264   0.272   0.267   0.277
    89.35    0.258   0.270   0.270   0.251   0.258   0.269   0.274   0.268   0.269   0.293   0.298   0.290   0.297   0.322   0.301   0.290   0.294   0.290   0.278   0.292   0.291   0.289   0.303   0.292   0.282   0.266   0.252   0.246   0.252   0.248   0.250   0.246   0.249   0.267   0.288
    84.70    0.271   0.264   0.247   0.263   0.259   0.268   0.277   0.260   0.263   0.271   0.298   0.313   0.320   0.307   0.325   0.298   0.291   0.288   0.289   0.288   0.285   0.277   0.289   0.293   0.275   0.260   0.251   0.251   0.256   0.250   0.255   0.247   0.249   0.263   0.293
    80.05    0.265   0.261   0.248   0.259   0.267   0.259   0.272   0.277   0.266   0.272   0.285   0.312   0.312   0.322   0.311   0.310   0.309   0.295   0.292   0.287   0.289   0.280   0.280   0.279   0.286   0.281   0.264   0.259   0.277   0.280   0.284   0.276   0.284   0.269   0.287
    75.40    0.262   0.252   0.250   0.252   0.258   0.271   0.260   0.271   0.277   0.271   0.292   0.302   0.297   0.323   0.311   0.286   0.284   0.298   0.269   0.272   0.277   0.294   0.282   0.287   0.286   0.299   0.283   0.279   0.280   0.295   0.288   0.289   0.273   0.285   0.282
    70.75    0.255   0.255   0.236   0.253   0.263   0.260   0.275   0.276   0.288   0.282   0.278   0.300   0.308   0.327   0.301   0.283   0.274   0.287   0.266   0.263   0.296   0.313   0.292   0.304   0.295   0.292   0.295   0.299   0.299   0.307   0.276   0.283   0.284   0.291   0.290
    66.10    0.249   0.255   0.244   0.247   0.249   0.268   0.265   0.261   0.273   0.268   0.283   0.298   0.310   0.303   0.302   0.288   0.278   0.290   0.282   0.260   0.282   0.309   0.303   0.309   0.314   0.319   0.311   0.329   0.321   0.299   0.282   0.275   0.274   0.275   0.271
    61.45    0.254   0.262   0.260   0.267   0.254   0.271   0.265   0.261   0.274   0.284   0.274   0.278   0.293   0.304   0.308   0.293   0.294   0.314   0.292   0.273   0.269   0.281   0.300   0.298   0.311   0.303   0.307   0.325   0.328   0.292   0.291   0.291   0.280   0.269   0.263
    56.80    0.274   0.268   0.250   0.264   0.263   0.280   0.275   0.270   0.284   0.281   0.283   0.284   0.281   0.304   0.309   0.304   0.333   0.335   0.299   0.285   0.274   0.279   0.286   0.283   0.300   0.316   0.334   0.333   0.325   0.298   0.279   0.285   0.285   0.270   0.263
    52.15    0.262   0.272   0.250   0.268   0.278   0.282   0.295   0.274   0.287   0.291   0.280   0.291   0.272   0.288   0.306   0.334   0.334   0.316   0.293   0.282   0.285   0.286   0.278   0.291   0.302   0.332   0.332   0.331   0.317   0.313   0.297   0.312   0.303   0.282   0.271
    47.50    0.275   0.275   0.267   0.278   0.285   0.277   0.275   0.288   0.282   0.286   0.288   0.284   0.281   0.277   0.297   0.320   0.312   0.294   0.293   0.298   0.297   0.296   0.282   0.299   0.302   0.332   0.323   0.333   0.313   0.313   0.314   0.316   0.317   0.300   0.294
    42.85    0.273   0.291   0.281   0.286   0.287   0.292   0.282   0.277   0.281   0.268   0.276   0.284   0.283   0.293   0.303   0.310   0.306   0.293   0.296   0.297   0.305   0.304   0.290   0.289   0.306   0.317   0.330   0.353   0.334   0.310   0.306   0.322   0.329   0.327   0.331
    38.20    0.264   0.279   0.281   0.280   0.281   0.272   0.279   0.286   0.273   0.267   0.269   0.279   0.278   0.301   0.307   0.293   0.321   0.319   0.305   0.302   0.307   0.308   0.298   0.295   0.303   0.317   0.341   0.361   0.351   0.332   0.338   0.339   0.357   0.357   0.342
    33.55    0.269   0.259   0.272   0.271   0.271   0.252   0.259   0.262   0.264   0.259   0.256   0.277   0.290   0.303   0.308   0.311   0.303   0.298   0.296   0.315   0.305   0.327   0.321   0.308   0.307   0.332   0.359   0.354   0.361   0.357   0.354   0.353   0.359   0.368   0.338
    28.90    0.265   0.271   0.248   0.251   0.253   0.251   0.243   0.259   0.270   0.271   0.263   0.283   0.293   0.306   0.314   0.305   0.284   0.294   0.288   0.291   0.289   0.316   0.322   0.321   0.318   0.327   0.356   0.365   0.359   0.378   0.375   0.347   0.357   0.334   0.330
    24.25    0.272   0.275   0.262   0.244   0.270   0.253   0.242   0.260   0.257   0.260   0.266   0.275   0.292   0.309   0.309   0.299   0.296   0.314   0.312   0.286   0.287   0.315   0.328   0.318   0.316   0.320   0.347   0.350   0.344   0.368   0.353   0.356   0.335   0.324   0.305
    19.60    0.266   0.257   0.264   0.255   0.269   0.241   0.248   0.261   0.245   0.264   0.267   0.270   0.293   0.305   0.295   0.317   0.301   0.296   0.294   0.309   0.311   0.329   0.315   0.319   0.326   0.330   0.351   0.369   0.345   0.360   0.363   0.335   0.334   0.318   0.302
    14.95    0.266   0.256   0.269   0.265   0.270   0.256   0.270   0.255   0.257   0.283   0.288   0.283   0.290   0.285   0.277   0.298   0.309   0.295   0.294   0.307   0.313   0.305   0.324   0.345   0.332   0.334   0.341   0.349   0.367   0.370   0.340   0.332   0.317   0.307   0.290
    10.30    0.268   0.275   0.272   0.274   0.269   0.274   0.270   0.267   0.274   0.285   0.300   0.294   0.296   0.289   0.295   0.283   0.311   0.306   0.314   0.308   0.311   0.320   0.335   0.335   0.335   0.348   0.344   0.357   0.361   0.353   0.331   0.320   0.314   0.315   0.301
     5.65    0.284   0.277   0.283   0.294   0.299   0.291   0.289   0.293   0.298   0.293   0.300   0.301   0.295   0.302   0.323   0.315   0.313   0.319   0.325   0.317   0.318   0.331   0.331   0.332   0.333   0.338   0.345   0.348   0.342   0.316   0.304   0.320   0.311   0.307   0.294
     1.00    0.282   0.272   0.292   0.304   0.282   0.285   0.295   0.285   0.294   0.287   0.295   0.294   0.308   0.315   0.318   0.326   0.311   0.301   0.318   0.335   0.313   0.323   0.320   0.329   0.327   0.318   0.329   0.330   0.308   0.295   0.298   0.280   0.295   0.283   0.281

   Height   Standard deviation at grid points for the v component:
   168.40    0.242   0.225   0.230   0.231   0.238   0.237   0.238   0.241   0.239   0.226   0.215   0.230   0.235   0.235   0.242   0.236   0.235   0.228   0.228   0.241   0.235   0.252   0.238   0.242   0.238   0.237   0.238   0.241   0.224   0.219   0.215   0.218   0.207   0.210   0.218
   163.75    0.240   0.226   0.234   0.244   0.229   0.224   0.213   0.233   0.237   0.224   0.223   0.220   0.231   0.229   0.237   0.243   0.240   0.237   0.242   0.225   0.239   0.252   0.239   0.242   0.239   0.242   0.236   0.229   0.229   0.222   0.214   0.224   0.220   0.215   0.223
   159.10    0.221   0.215   0.222   0.218   0.234   0.219   0.225   0.226   0.231   0.234   0.231   0.221   0.225   0.217   0.234   0.243   0.238   0.235   0.227   0.231   0.241   0.238   0.238   0.236   0.230   0.223   0.231   0.230   0.240   0.232   0.220   0.222   0.215   0.218   0.244
   154.45    0.233   0.222   0.216   0.228   0.221   0.227   0.236   0.238   0.227   0.233   0.221   0.218   0.218   0.222   0.235   0.230   0.228   0.223   0.231   0.231   0.224   0.228   0.244   0.232   0.232   0.213   0.218   0.232   0.245   0.237   0.227   0.198   0.223   0.231   0.244
   149.80    0.236   0.228   0.222   0.227   0.227   0.241   0.224   0.227   0.230   0.226   0.224   0.247   0.238   0.236   0.240   0.229   0.238   0.218   0.223   0.222   0.212   0.226   0.232   0.230   0.210   0.202   0.228   0.234   0.229   0.233   0.221   0.209   0.211   0.217   0.231
   145.15    0.232   0.229   0.239   0.237   0.239   0.240   0.222   0.223   0.221   0.230   0.231   0.247   0.244   0.239   0.230   0.228   0.224   0.228   0.217   0.215   0.217   0.225   0.237   0.221   0.218   0.222   0.238   0.244   0.227   0.214   0.211   0.211   0.223   0.228   0.221
   140.50    0.240   0.236   0.235   0.219   0.215   0.228   0.232   0.229   0.234   0.246   0.238   0.227   0.242   0.245   0.230   0.229   0.216   0.222   0.226   0.223   0.219   0.227   0.242   0.212   0.209   0.220   0.225   0.240   0.247   0.243   0.231   0.221   0.224   0.219   0.224
   135.85    0.249   0.239   0.234   0.227   0.227   0.225   0.226   0.219   0.231   0.229   0.227   0.219   0.234   0.244   0.243   0.222   0.223   0.223   0.234   0.223   0.235   0.230   0.229   0.231   0.220   0.225   0.234   0.224   0.241   0.243   0.242   0.234   0.227   0.221   0.218
   131.20    0.240   0.250   0.232   0.225   0.233   0.227   0.221   0.213   0.234   0.224   0.221   0.228   0.231   0.233   0.229   0.226   0.228   0.221   0.231   0.226   0.238   0.230   0.232   0.233   0.218   0.239   0.240   0.251   0.242   0.248   0.234   0.223   0.222   0.228   0.240
   126.55    0.248   0.246   0.239   0.240   0.231   0.220   0.228   0.237   0.218   0.217   0.229   0.228   0.238   0.246   0.233   0.239   0.221   0.229   0.223   0.237   0.233   0.241   0.244   0.247   0.230   0.237   0.249   0.240   0.238   0.238   0.228   0.221   0.213   0.224   0.239
   121.90    0.237   0.234   0.234   0.245   0.226   0.224   0.218   0.222   0.220   0.221   0.229   0.232   0.248   0.250   0.244   0.226   0.238   0.224   0.223   0.218   0.220   0.236   0.240   0.247   0.241   0.238   0.235   0.252   0.236   0.226   0.218   0.217   0.211   0.214   0.217
   117.25    0.249   0.234   0.229   0.234   0.231   0.217   0.222   0.219   0.222   0.224   0.221   0.226   0.229   0.242   0.230   0.237   0.230   0.233   0.217   0.202   0.211   0.228   0.228   0.224   0.230   0.227   0.241   0.253   0.248   0.238   0.215   0.209   0.202   0.201   0.208
   112.60    0.264   0.252   0.248   0.228   0.232   0.217   0.221   0.226   0.230   0.224   0.219   0.230   0.225   0.226   0.246   0.228   0.232   0.234   0.219   0.204   0.206   0.217   0.233   0.229   0.216   0.232   0.228   0.244   0.239   0.243   0.232   0.218   0.210   0.206   0.210
   107.95    0.277   0.277   0.260   0.244   0.239   0.226   0.223   0.210   0.226   0.216   0.220   0.212   0.226   0.231   0.234   0.237   0.226   0.221   0.227   0.225   0.214   0.217   0.221   0.226   0.224   0.226   0.219   0.236   0.238   0.249   0.235   0.214   0.210   0.200   0.214
   103.30    0.264   0.258   0.234   0.240   0.233   0.213   0.216   0.217   0.215   0.216   0.222   0.223   0.231   0.235   0.239   0.248   0.255   0.255   0.243   0.229   0.233   0.241   0.229   0.222   0.222   0.217   0.217   0.222   0.232   0.235   0.226   0.216   0.207   0.220   0.223
    98.65    0.242   0.225   0.224   0.230   0.231   0.223   0.221   0.211   0.203   0.201   0.216   0.227   0.236   0.225   0.242   0.243   0.252   0.244   0.251   0.245   0.248   0.244   0.229   0.208   0.205   0.207   0.216   0.231   0.228   0.229   0.229   0.216   0.210   0.224   0.222
    94.00    0.228   0.228   0.223   0.231   0.221   0.223   0.232   0.227   0.214   0.223   0.218   0.220   0.228   0.224   0.223   0.228   0.226   0.237   0.237   0.250   0.248   0.232   0.223   0.204   0.208   0.209   0.235   0.245   0.235   0.228   0.225   0.217   0.217   0.222   0.238
    89.35    0.233   0.220   0.222   0.215   0.216   0.218   0.221   0.221   0.219   0.220   0.215   0.220   0.221   0.225   0.224   0.233   0.227   0.227   0.225   0.231   0.231   0.230   0.217   0.206   0.221   0.222   0.232   0.238   0.230   0.228   0.223   0.226   0.227   0.220   0.237
    84.70    0.230   0.224   0.236   0.222   0.213   0.228   0.220   0.217   0.223   0.219   0.221   0.228   0.213   0.216   0.230   0.237   0.246   0.229   0.229   0.221   0.228   0.221   0.224   0.211   0.222   0.210   0.208   0.225   0.224   0.228   0.224   0.220   0.223   0.223   0.222
    80.05    0.218   0.231   0.230   0.230   0.214   0.214   0.224   0.219   0.221   0.237   0.237   0.233   0.231   0.227   0.253   0.246   0.255   0.239   0.230   0.220   0.223   0.229   0.221   0.218   0.218   0.211   0.196   0.209   0.221   0.213   0.214   0.221   0.233   0.226   0.214
    75.40    0.239   0.245   0.236   0.224   0.220   0.213   0.222   0.225   0.219   0.239   0.243   0.244   0.255   0.241   0.251   0.243   0.249   0.243   0.223   0.229   0.225   0.228   0.216   0.210   0.219   0.205   0.210   0.205   0.213   0.208   0.215   0.212   0.215   0.215   0.215
    70.75    0.236   0.236   0.232   0.232   0.226   0.215   0.231   0.238   0.227   0.244   0.248   0.244   0.245   0.252   0.238   0.243   0.249   0.251   0.236   0.218   0.243   0.228   0.216   0.210   0.221   0.217   0.219   0.216   0.202   0.205   0.208   0.200   0.201   0.209   0.225
    66.10    0.228   0.220   0.240   0.229   0.244   0.246   0.233   0.224   0.237   0.243   0.250   0.240   0.247   0.249   0.259   0.255   0.245   0.237   0.241   0.227   0.235   0.229   0.229   0.222   0.219   0.237   0.225   0.236   0.217   0.196   0.203   0.207   0.205   0.213   0.230
    61.45    0.234   0.216   0.239   0.244   0.249   0.236   0.240   0.235   0.224   0.232   0.244   0.238   0.251   0.249   0.257   0.252   0.249   0.231   0.242   0.227   0.219   0.235   0.239   0.225   0.212   0.227   0.227   0.229   0.226   0.209   0.213   0.204   0.211   0.213   0.232
    56.80    0.228   0.233   0.236   0.241   0.245   0.243   0.255   0.242   0.239   0.265   0.255   0.263   0.240   0.264   0.267   0.282   0.251   0.238   0.244   0.240   0.234   0.221   0.230   0.237   0.208   0.227   0.222   0.235   0.213   0.216   0.215   0.209   0.230   0.225   0.227
    52.15    0.249   0.240   0.249   0.246   0.242   0.241   0.243   0.233   0.248   0.270   0.277   0.258   0.252   0.264   0.271   0.282   0.281   0.263   0.237   0.242   0.232   0.221   0.219   0.213   0.211   0.225   0.225   0.216   0.223   0.216   0.228   0.222   0.227   0.238   0.233
    47.50    0.252   0.242   0.237   0.235   0.246   0.260   0.237   0.221   0.225   0.262   0.274   0.266   0.241   0.253   0.252   0.256   0.262   0.262   0.248   0.232   0.232   0.221   0.226   0.220   0.209   0.223   0.230   0.212   0.217   0.224   0.235   0.240   0.238   0.242   0.242
    42.85    0.242   0.246   0.242   0.230   0.245   0.225   0.231   0.234   0.242   0.257   0.270   0.259   0.255   0.241   0.250   0.256   0.242   0.245   0.234   0.244   0.235   0.231   0.245   0.228   0.230   0.237   0.212   0.215   0.218   0.226   0.226   0.219   0.232   0.223   0.227
    38.20    0.248   0.232   0.233   0.231   0.227   0.226   0.225   0.218   0.234   0.250   0.259   0.272   0.241   0.258   0.256   0.266   0.247   0.239   0.239   0.254   0.258   0.262   0.239   0.238   0.247   0.240   0.236   0.229   0.242   0.244   0.238   0.222   0.213   0.213   0.204
    33.55    0.239   0.236   0.234   0.224   0.228   0.223   0.227   0.219   0.235   0.245   0.259   0.255   0.245   0.250   0.247   0.244   0.244   0.248   0.255   0.261   0.256   0.243   0.249   0.237   0.259   0.243   0.232   0.237   0.240   0.246   0.223   0.210   0.207   0.210   0.213
    28.90    0.241   0.226   0.223   0.232   0.232   0.219   0.216   0.232   0.231   0.254   0.255   0.252   0.241   0.239   0.236   0.230   0.244   0.260   0.248   0.231   0.237   0.240   0.242   0.221   0.238   0.235   0.216   0.238   0.247   0.230   0.229   0.228   0.221   0.215   0.205
    24.25    0.239   0.228   0.222   0.229   0.228   0.223   0.228   0.233   0.253   0.257   0.247   0.236   0.248   0.245   0.245   0.247   0.249   0.242   0.249   0.231   0.223   0.229   0.225   0.224   0.230   0.228   0.227   0.227   0.233   0.243   0.245   0.224   0.214   0.219   0.208
    19.60    0.248   0.241   0.218   0.218   0.231   0.242   0.224   0.235   0.254   0.268   0.241   0.235   0.245   0.247   0.259   0.254   0.241   0.235   0.225   0.230   0.227   0.221   0.219   0.228   0.234   0.213   0.207   0.204   0.213   0.225   0.227   0.224   0.218   0.220   0.216
    14.95    0.244   0.236   0.231   0.235   0.243   0.246   0.238   0.242   0.257   0.269   0.265   0.257   0.241   0.240   0.266   0.247   0.239   0.230   0.230   0.229   0.226   0.233   0.227   0.223   0.228   0.216   0.219   0.213   0.222   0.221   0.227   0.218   0.219   0.223   0.214
    10.30    0.244   0.235   0.236   0.253   0.261   0.246   0.257   0.254   0.251   0.256   0.263   0.244   0.240   0.246   0.256   0.252   0.238   0.251   0.252   0.253   0.242   0.227   0.212   0.209   0.227   0.224   0.223   0.213   0.211   0.213   0.225   0.228   0.224   0.216   0.222
     5.65    0.231   0.239   0.260   0.269   0.255   0.242   0.236   0.258   0.274   0.274   0.251   0.239   0.232   0.240   0.242   0.232   0.230   0.240   0.250   0.247   0.229   0.218   0.225   0.217   0.239   0.254   0.234   0.230   0.219   0.232   0.239   0.236   0.226   0.235   0.234
     1.00    0.233   0.244   0.258   0.260   0.261   0.248   0.256   0.261   0.268   0.274   0.248   0.244   0.226   0.247   0.233   0.226   0.231   0.239   0.244   0.234   0.236   0.249   0.247   0.247   0.259   0.258   0.237   0.221   0.223   0.237   0.243   0.228   0.230   0.223   0.224

   Height   Standard deviation at grid points for the w component:
   168.40    0.144   0.148   0.145   0.139   0.149   0.150   0.146   0.147   0.149   0.149   0.145   0.141   0.141   0.140   0.138   0.139   0.144   0.152   0.149   0.148   0.152   0.149   0.148   0.144   0.141   0.144   0.141   0.145   0.136   0.134   0.136   0.138   0.135   0.130   0.135
   163.75    0.145   0.149   0.145   0.139   0.141   0.142   0.142   0.145   0.149   0.146   0.144   0.142   0.141   0.140   0.136   0.141   0.142   0.146   0.149   0.147   0.147   0.146   0.142   0.143   0.144   0.143   0.141   0.142   0.145   0.136   0.131   0.131   0.132   0.135   0.134
   159.10    0.143   0.142   0.148   0.142   0.148   0.145   0.148   0.144   0.148   0.146   0.140   0.138   0.141   0.140   0.139   0.137   0.140   0.141   0.150   0.149   0.140   0.138   0.141   0.139   0.142   0.137   0.138   0.139   0.138   0.134   0.128   0.133   0.133   0.135   0.139
   154.45    0.140   0.143   0.139   0.140   0.142   0.144   0.140   0.144   0.142   0.143   0.136   0.133   0.137   0.134   0.136   0.137   0.137   0.136   0.144   0.140   0.143   0.135   0.141   0.140   0.139   0.142   0.144   0.144   0.144   0.136   0.136   0.136   0.136   0.137   0.134
   149.80    0.146   0.143   0.136   0.135   0.139   0.141   0.139   0.140   0.137   0.139   0.137   0.139   0.139   0.139   0.138   0.140   0.140   0.140   0.140   0.143   0.140   0.142   0.139   0.136   0.141   0.140   0.146   0.144   0.145   0.139   0.135   0.141   0.140   0.147   0.140
   145.15    0.140   0.142   0.137   0.137   0.142   0.140   0.147   0.139   0.136   0.144   0.138   0.134   0.141   0.140   0.139   0.138   0.142   0.138   0.138   0.140   0.139   0.140   0.140   0.136   0.143   0.138   0.142   0.146   0.140   0.145   0.143   0.140   0.141   0.145   0.144
   140.50    0.145   0.142   0.140   0.142   0.143   0.149   0.151   0.142   0.144   0.149   0.140   0.135   0.135   0.139   0.139   0.144   0.146   0.141   0.140   0.142   0.140   0.136   0.136   0.139   0.139   0.141   0.137   0.145   0.145   0.141   0.147   0.143   0.137   0.146   0.147
   135.85    0.141   0.141   0.146   0.149   0.148   0.151   0.152   0.149   0.152   0.151   0.147   0.146   0.143   0.142   0.135   0.145   0.145   0.145   0.142   0.141   0.137   0.136   0.138   0.138   0.135   0.138   0.138   0.142   0.143   0.141   0.148   0.149   0.146   0.142   0.149
   131.20    0.143   0.138   0.145   0.151   0.149   0.151   0.155   0.158   0.151   0.155   0.153   0.145   0.145   0.140   0.140   0.146   0.149   0.144   0.145   0.143   0.143   0.143   0.135   0.136   0.135   0.135   0.135   0.141   0.139   0.141   0.144   0.150   0.147   0.144   0.151
   126.55    0.143   0.138   0.142   0.147   0.156   0.158   0.157   0.160   0.154   0.153   0.152   0.150   0.148   0.143   0.141   0.141   0.147   0.151   0.147   0.140   0.135   0.140   0.139   0.138   0.136   0.139   0.140   0.137   0.136   0.141   0.143   0.146   0.140   0.147   0.146
   121.90    0.142   0.139   0.143   0.144   0.149   0.155   0.160   0.156   0.153   0.156   0.150   0.147   0.146   0.145   0.147   0.145   0.149   0.155   0.150   0.146   0.136   0.139   0.135   0.140   0.137   0.139   0.135   0.138   0.138   0.139   0.144   0.143   0.144   0.142   0.146
   117.25    0.142   0.142   0.142   0.143   0.149   0.154   0.161   0.157   0.155   0.157   0.151   0.155   0.151   0.153   0.154   0.150   0.148   0.153   0.146   0.150   0.140   0.139   0.139   0.138   0.138   0.137   0.137   0.133   0.138   0.138   0.143   0.141   0.141   0.142   0.145
   112.60    0.144   0.146   0.148   0.150   0.151   0.159   0.166   0.166   0.157   0.159   0.157   0.160   0.153   0.150   0.158   0.146   0.148   0.147   0.151   0.150   0.148   0.140   0.141   0.138   0.140   0.136   0.132   0.137   0.138   0.140   0.145   0.146   0.144   0.145   0.147
   107.95    0.148   0.153   0.149   0.158   0.149   0.154   0.154   0.154   0.158   0.158   0.160   0.158   0.151   0.147   0.148   0.141   0.145   0.149   0.153   0.151   0.146   0.144   0.142   0.139   0.143   0.139   0.141   0.142   0.146   0.145   0.147   0.143   0.140   0.140   0.136
   103.30    0.150   0.148   0.153   0.153   0.155   0.149   0.152   0.152   0.154   0.161   0.160   0.152   0.152   0.146   0.145   0.147   0.146   0.143   0.147   0.148   0.145   0.147   0.144   0.141   0.146   0.143   0.145   0.147   0.148   0.150   0.148   0.144   0.144   0.141   0.141
    98.65    0.153   0.144   0.148   0.153   0.151   0.149   0.148   0.151   0.160   0.162   0.152   0.146   0.148   0.145   0.145   0.148   0.143   0.139   0.144   0.142   0.145   0.143   0.144   0.147   0.143   0.146   0.147   0.149   0.148   0.147   0.144   0.139   0.145   0.144   0.137
    94.00    0.151   0.151   0.148   0.152   0.150   0.150   0.152   0.154   0.155   0.158   0.148   0.149   0.145   0.151   0.150   0.143   0.146   0.145   0.145   0.141   0.138   0.136   0.140   0.144   0.146   0.143   0.145   0.147   0.145   0.145   0.142   0.142   0.143   0.139   0.137
    89.35    0.150   0.148   0.146   0.144   0.146   0.145   0.143   0.147   0.150   0.150   0.148   0.140   0.146   0.149   0.153   0.146   0.155   0.145   0.145   0.144   0.142   0.143   0.141   0.139   0.143   0.137   0.139   0.144   0.142   0.140   0.147   0.150   0.145   0.143   0.145
    84.70    0.146   0.144   0.144   0.143   0.146   0.141   0.143   0.146   0.148   0.153   0.145   0.143   0.143   0.152   0.153   0.144   0.144   0.150   0.146   0.148   0.141   0.140   0.133   0.141   0.142   0.140   0.137   0.143   0.143   0.147   0.151   0.154   0.148   0.148   0.145
    80.05    0.146   0.142   0.144   0.147   0.144   0.143   0.151   0.147   0.148   0.148   0.150   0.149   0.149   0.150   0.144   0.140   0.142   0.141   0.143   0.144   0.144   0.137   0.131   0.135   0.136   0.136   0.135   0.140   0.147   0.145   0.144   0.154   0.155   0.151   0.147
    75.40    0.146   0.143   0.147   0.147   0.148   0.147   0.149   0.146   0.144   0.148   0.151   0.154   0.148   0.147   0.148   0.147   0.137   0.140   0.140   0.147   0.137   0.139   0.140   0.142   0.138   0.134   0.133   0.140   0.142   0.141   0.146   0.147   0.146   0.142   0.147
    70.75    0.149   0.148   0.148   0.147   0.144   0.147   0.149   0.142   0.145   0.153   0.154   0.151   0.150   0.150   0.151   0.144   0.141   0.137   0.139   0.137   0.139   0.138   0.142   0.140   0.135   0.130   0.133   0.132   0.142   0.142   0.143   0.142   0.143   0.141   0.142
    66.10    0.145   0.143   0.143   0.141   0.150   0.146   0.148   0.143   0.146   0.149   0.153   0.155   0.156   0.151   0.150   0.140   0.139   0.138   0.136   0.133   0.132   0.137   0.142   0.142   0.136   0.131   0.136   0.136   0.143   0.141   0.140   0.140   0.138   0.144   0.143
    61.45    0.143   0.141   0.141   0.148   0.147   0.146   0.143   0.146   0.142   0.152   0.151   0.152   0.157   0.155   0.150   0.141   0.140   0.139   0.141   0.142   0.136   0.135   0.141   0.140   0.134   0.131   0.137   0.136   0.141   0.141   0.135   0.135   0.135   0.142   0.139
    56.80    0.138   0.140   0.146   0.150   0.148   0.149   0.145   0.145   0.141   0.148   0.150   0.153   0.151   0.152   0.145   0.147   0.139   0.140   0.140   0.140   0.138   0.137   0.142   0.141   0.140   0.131   0.137   0.140   0.141   0.136   0.133   0.134   0.135   0.142   0.141
    52.15    0.137   0.142   0.141   0.149   0.145   0.144   0.143   0.143   0.144   0.149   0.151   0.151   0.148   0.148   0.148   0.148   0.140   0.147   0.141   0.141   0.148   0.144   0.144   0.140   0.138   0.134   0.138   0.140   0.139   0.138   0.135   0.137   0.136   0.134   0.138
    47.50    0.145   0.143   0.149   0.151   0.148   0.138   0.139   0.142   0.146   0.151   0.152   0.153   0.153   0.151   0.153   0.146   0.148   0.144   0.143   0.148   0.145   0.144   0.144   0.141   0.144   0.139   0.136   0.135   0.140   0.137   0.136   0.136   0.135   0.139   0.136
    42.85    0.148   0.150   0.149   0.153   0.149   0.147   0.141   0.141   0.142   0.148   0.152   0.153   0.155   0.150   0.149   0.149   0.145   0.141   0.142   0.149   0.144   0.145   0.142   0.144   0.139   0.140   0.139   0.140   0.138   0.143   0.140   0.135   0.139   0.141   0.137
    38.20    0.147   0.152   0.153   0.154   0.155   0.148   0.146   0.142   0.140   0.149   0.156   0.153   0.150   0.148   0.150   0.147   0.142   0.145   0.142   0.150   0.148   0.144   0.147   0.145   0.141   0.143   0.143   0.143   0.141   0.139   0.135   0.139   0.136   0.141   0.137
    33.55    0.153   0.150   0.154   0.150   0.153   0.149   0.147   0.148   0.145   0.150   0.154   0.157   0.151   0.148   0.147   0.144   0.142   0.140   0.146   0.150   0.148   0.144   0.144   0.142   0.147   0.146   0.147   0.148   0.149   0.142   0.141   0.137   0.139   0.135   0.132
    28.90    0.151   0.153   0.161   0.148   0.151   0.156   0.156   0.152   0.154   0.153   0.154   0.154   0.154   0.152   0.147   0.147   0.145   0.146   0.151   0.147   0.143   0.145   0.143   0.144   0.144   0.142   0.144   0.147   0.143   0.141   0.137   0.135   0.136   0.137   0.134
    24.25    0.151   0.153   0.160   0.158   0.154   0.153   0.152   0.151   0.157   0.159   0.156   0.156   0.153   0.151   0.147   0.148   0.147   0.146   0.148   0.147   0.143   0.143   0.144   0.148   0.145   0.144   0.137   0.139   0.142   0.141   0.144   0.142   0.138   0.133   0.135
    19.60    0.151   0.158   0.162   0.159   0.156   0.154   0.149   0.150   0.158   0.156   0.158   0.152   0.153   0.151   0.147   0.150   0.147   0.140   0.146   0.149   0.142   0.147   0.142   0.146   0.144   0.143   0.139   0.138   0.139   0.143   0.143   0.142   0.134   0.129   0.130
    14.95    0.151   0.160   0.163   0.155   0.155   0.155   0.151   0.153   0.156   0.157   0.164   0.151   0.161   0.151   0.153   0.145   0.143   0.141   0.144   0.145   0.152   0.147   0.148   0.142   0.136   0.145   0.147   0.139   0.139   0.141   0.137   0.138   0.137   0.132   0.133
    10.30    0.148   0.150   0.160   0.153   0.151   0.161   0.156   0.148   0.156   0.159   0.158   0.156   0.156   0.148   0.149   0.144   0.143   0.145   0.142   0.145   0.149   0.145   0.141   0.147   0.141   0.146   0.141   0.139   0.131   0.135   0.136   0.138   0.131   0.134   0.138
     5.65    0.148   0.150   0.154   0.150   0.150   0.154   0.154   0.153   0.151   0.155   0.157   0.157   0.154   0.148   0.147   0.146   0.146   0.145   0.145   0.149   0.147   0.144   0.144   0.145   0.144   0.143   0.138   0.142   0.136   0.139   0.133   0.132   0.134   0.135   0.139
     1.00    0.149   0.147   0.147   0.149   0.153   0.149   0.147   0.153   0.150   0.153   0.151   0.155   0.155   0.147   0.146   0.148   0.148   0.148   0.150   0.151   0.146   0.143   0.145   0.147   0.140   0.142   0.138   0.140   0.138   0.141   0.139   0.136   0.140   0.137   0.136

   Mean standard deviation across all grid points:
      u component:    0.282 m/s
      v component:    0.232 m/s
      w component:    0.144 m/s


U-component (X) statistics from the interpolated hub point:

   Mean =   9.9913 m/s
   TI   =   2.9071 %


Processing complete.  6081.4 CPU seconds used.
