
This summary file was generated by TurbSim (from OpenFAST-v3.5.3) on 20-Apr-2025 at 12:01:56.


Runtime Options:

1682697194  Random seed #1
    RANLUX  Type of random number generator
         F  Output binary HH turbulence parameters?
         F  Output formatted turbulence parameters?
         F  Output AeroDyn HH files?
         T  Output AeroDyn FF files?
         F  Output BLADED FF files?
         F  Output tower data?
         F  Output HAWC FF files?
         F  Output formatted FF files?
         T  Output coherent turbulence time step file?
 0 -  NONE  IEC turbulence models scaled to exact specified standard deviation


Turbine/Model Specifications:

        37  Vertical grid-point matrix dimension
        35  Horizontal grid-point matrix dimension
     0.250  Time step [seconds]
   900.000  Analysis time [seconds]
   900.000  Usable output time [seconds]
    89.350  Hub height [m]
   167.400  Grid height [m]
   158.100  Grid width [m]
     0.000  Vertical flow angle [degrees]
     0.000  Horizontal flow angle [degrees]


Meteorological Boundary Conditions:

    TIMESR  User-input time series spectral model
       N/A  IEC standard
       N/A  IEC turbulence characteristic
       N/A  IEC turbulence type
       N/A  IEC Extreme Turbulence Model (ETM) "c" parameter [m/s]
       PL   Wind profile type
    90.000  Reference height [m]
    10.000  Reference wind speed [m/s]
       N/A  Jet height [m]
     0.120  Power law exponent
     0.030  Surface roughness length [m]


Non-IEC Meteorological Boundary Conditions:

    45.000  Site latitude [degrees]
     0.050  Gradient Richardson number
     0.480  Friction or shear velocity [m/s]
       N/A  Mixing layer depth [m]
       N/A  Mean hub u'w' Reynolds stress
       N/A  Mean hub u'v' Reynolds stress
       N/A  Mean hub v'w' Reynolds stress


Spatial Coherence Models:

       IEC  u-component coherence model
       IEC  v-component coherence model
       IEC  w-component coherence model
(   12.000, 0.353E-03)  u-component coherence parameters
(   12.000, 0.353E-03)  v-component coherence parameters
(   12.000, 0.353E-03)  w-component coherence parameters
       N/A  Coherence exponent


Coherent Turbulence Scaling Parameters:

.\EventData
            Name of the path containing the coherent turbulence data files
       les  Type of coherent turbulence data files
     0.500  Disturbance scale (ratio of wave height to rotor diameter)
     0.500  Fractional location of tower centerline from right
     0.000  Fractional location of hub height from the bottom of the dataset
    30.000  Minimum start time for coherent structures [seconds]


Profiles from User-Defined Time-Series Input:

  Height   Wind Speed   Horizontal Angle   Vertical Angle
   (m)        (m/s)          (deg)              (deg)    
  ------   ----------   ----------------   --------------
   94.00      10.00          -0.63               -0.00


You have requested that the following file(s) be generated:

   /kfs3/scratch/agupta/Projects/RL_Incubator/FinalRuns_Veer/Seed4/./FFSim_Seed4/Cond00_v10.0_PL0.12_TI3.0/Case3_wdirp06/Seed_5/TurbSim/HighT8.bts (AeroDyn/TurbSim full-field wind file)


Turbulence Simulation Scaling Parameter Summary:

   Turbulence model used                            =  User-input time series
   Gradient Richardson number                       =    0.050
   Monin-Obukhov (M-O) z/L parameter                =    0.067
   Monin-Obukhov (M-O) length scale                 = 1340.250 m
   Mean wind speed at hub height                    =    9.991 m/s

   Wind profile type                                =  Power law
   Power law exponent                               =    0.120
   Mean shear across rotor disk                     =    0.019 (m/s)/m
   Assumed rotor diameter                           =  158.100 m
   Surface roughness length                         =    0.030 m

   Nyquist frequency of turbulent wind field        =    2.000 Hz

   Number of time steps in the FFT                  =     3600
   Number of time steps output                      =     3600
   Number of points simulated                       =     1296


Mean Flow Angles:

   Vertical   =   0.0 degrees
   Horizontal =   0.0 degrees

Mean Wind Speed Profile:

   Height    Wind Speed   Horizontal Angle  Vertical Angle  U-comp (X)   V-comp (Y)   W-comp (Z)
     (m)        (m/s)         (degrees)       (degrees)       (m/s)        (m/s)        (m/s)   
   ------    ----------   ----------------  --------------  ----------   ----------   ----------
    168.4       10.78            0.00            0.00         10.78         0.00         0.00
    163.7       10.74            0.00            0.00         10.74         0.00         0.00
    159.1       10.71            0.00            0.00         10.71         0.00         0.00
    154.4       10.67            0.00            0.00         10.67         0.00         0.00
    149.8       10.63            0.00            0.00         10.63         0.00         0.00
    145.1       10.59            0.00            0.00         10.59         0.00         0.00
    140.5       10.55            0.00            0.00         10.55         0.00         0.00
    135.8       10.51            0.00            0.00         10.51         0.00         0.00
    131.2       10.46            0.00            0.00         10.46         0.00         0.00
    126.5       10.42            0.00            0.00         10.42         0.00         0.00
    121.9       10.37            0.00            0.00         10.37         0.00         0.00
    117.2       10.32            0.00            0.00         10.32         0.00         0.00
    112.6       10.27            0.00            0.00         10.27         0.00         0.00
    107.9       10.22            0.00            0.00         10.22         0.00         0.00
    103.3       10.17            0.00            0.00         10.17         0.00         0.00
     98.6       10.11            0.00            0.00         10.11         0.00         0.00
     94.0       10.05            0.00            0.00         10.05         0.00         0.00
     89.3        9.99            0.00            0.00          9.99         0.00         0.00
     84.7        9.93            0.00            0.00          9.93         0.00         0.00
     80.0        9.86            0.00            0.00          9.86         0.00         0.00
     75.4        9.79            0.00            0.00          9.79         0.00         0.00
     70.7        9.72            0.00            0.00          9.72         0.00         0.00
     66.1        9.64            0.00            0.00          9.64         0.00         0.00
     61.4        9.55            0.00            0.00          9.55         0.00         0.00
     56.8        9.46            0.00            0.00          9.46         0.00         0.00
     52.1        9.37            0.00            0.00          9.37         0.00         0.00
     47.5        9.26            0.00            0.00          9.26         0.00         0.00
     42.8        9.15            0.00            0.00          9.15         0.00         0.00
     38.2        9.02            0.00            0.00          9.02         0.00         0.00
     33.5        8.88            0.00            0.00          8.88         0.00         0.00
     28.9        8.73            0.00            0.00          8.73         0.00         0.00
     24.2        8.54            0.00            0.00          8.54         0.00         0.00
     19.6        8.33            0.00            0.00          8.33         0.00         0.00
     14.9        8.06            0.00            0.00          8.06         0.00         0.00
     10.3        7.71            0.00            0.00          7.71         0.00         0.00
      5.6        7.17            0.00            0.00          7.17         0.00         0.00
      1.0        5.83            0.00            0.00          5.83         0.00         0.00


Harvested Random Seeds after Generation of the Random Numbers:

     65026800 K 1
            0 K 2


Hub-Height Simulated Turbulence Statistical Summary:

   Type of Wind        Min (m/s)   Mean (m/s)    Max (m/s)  Sigma (m/s)       TI (%)
   ----------------    ---------   ----------    ---------  -----------       ------
   Longitudinal (u)         9.22         9.99        10.85        0.281        2.808
   Lateral (v)             -0.64         0.00         0.62        0.220        2.201
   Vertical (w)            -0.46         0.00         0.61        0.143        1.433
   U component              9.22         9.99        10.85        0.281        2.808
   V component             -0.64         0.00         0.62        0.220        2.201
   W component             -0.46         0.00         0.61        0.143        1.433
   Horizontal (U&V)         9.22         9.99        10.85        0.281        2.810
   Total                    9.22         9.99        10.85        0.281        2.808

                       Min Reynolds     Mean Reynolds    Max Reynolds    Correlation
   Product             Stress (m/s)^2   Stress (m/s)^2   Stress (m/s)^2  Coefficient
   ----------------    --------------   --------------   --------------  -----------
   u'w'                     -0.219            -0.000             0.190        -0.012
   u'v'                     -0.393            -0.009             0.282        -0.139
   v'w'                     -0.172            -0.002             0.164        -0.055


   Friction Velocity (Ustar)  =      0.022 m/s
   Maximum Instantaneous TKE  =      0.424 (m/s)^2
   Maximum Instantaneous CTKE =      0.223 (m/s)^2


Grid Point Variance Summary:

   Y-coord  -79.05  -74.40  -69.75  -65.10  -60.45  -55.80  -51.15  -46.50  -41.85  -37.20  -32.55  -27.90  -23.25  -18.60  -13.95   -9.30   -4.65    0.00    4.65    9.30   13.95   18.60   23.25   27.90   32.55   37.20   41.85   46.50   51.15   55.80   60.45   65.10   69.75   74.40   79.05

   Height   Standard deviation at grid points for the u component:
   168.40    0.236   0.227   0.237   0.237   0.239   0.241   0.236   0.230   0.215   0.210   0.217   0.227   0.232   0.230   0.234   0.237   0.227   0.244   0.244   0.261   0.268   0.269   0.262   0.262   0.273   0.272   0.303   0.284   0.283   0.279   0.276   0.260   0.265   0.261   0.260
   163.75    0.228   0.218   0.206   0.229   0.229   0.232   0.231   0.224   0.227   0.212   0.223   0.246   0.248   0.238   0.239   0.245   0.240   0.232   0.236   0.261   0.260   0.258   0.260   0.279   0.272   0.264   0.275   0.292   0.288   0.284   0.254   0.267   0.264   0.270   0.242
   159.10    0.217   0.208   0.217   0.226   0.237   0.226   0.228   0.216   0.214   0.210   0.213   0.242   0.244   0.256   0.258   0.245   0.242   0.245   0.256   0.252   0.254   0.237   0.269   0.260   0.272   0.269   0.274   0.278   0.285   0.291   0.261   0.257   0.258   0.238   0.237
   154.45    0.226   0.216   0.224   0.220   0.212   0.204   0.218   0.228   0.228   0.231   0.240   0.244   0.248   0.244   0.239   0.249   0.255   0.257   0.259   0.270   0.256   0.236   0.248   0.269   0.279   0.261   0.269   0.275   0.273   0.253   0.272   0.254   0.257   0.257   0.251
   149.80    0.228   0.231   0.223   0.220   0.221   0.216   0.227   0.227   0.228   0.238   0.252   0.241   0.239   0.238   0.244   0.251   0.236   0.244   0.246   0.260   0.244   0.240   0.245   0.249   0.261   0.257   0.262   0.289   0.280   0.275   0.267   0.251   0.271   0.285   0.270
   145.15    0.222   0.216   0.203   0.222   0.222   0.223   0.219   0.226   0.247   0.253   0.254   0.249   0.252   0.228   0.233   0.253   0.245   0.230   0.241   0.246   0.265   0.258   0.235   0.247   0.251   0.251   0.273   0.274   0.276   0.284   0.263   0.265   0.271   0.272   0.266
   140.50    0.239   0.224   0.225   0.206   0.218   0.228   0.227   0.205   0.229   0.233   0.240   0.247   0.249   0.243   0.244   0.244   0.238   0.247   0.244   0.240   0.249   0.251   0.256   0.254   0.250   0.272   0.267   0.271   0.273   0.272   0.267   0.271   0.267   0.259   0.268
   135.85    0.223   0.221   0.228   0.225   0.235   0.218   0.216   0.209   0.210   0.217   0.235   0.252   0.258   0.260   0.247   0.250   0.242   0.239   0.232   0.243   0.259   0.259   0.254   0.254   0.245   0.260   0.274   0.272   0.275   0.276   0.273   0.262   0.254   0.244   0.258
   131.20    0.236   0.221   0.229   0.242   0.224   0.205   0.221   0.237   0.233   0.226   0.237   0.237   0.242   0.247   0.241   0.247   0.259   0.250   0.244   0.242   0.249   0.246   0.256   0.249   0.254   0.257   0.264   0.274   0.274   0.272   0.259   0.256   0.266   0.261   0.264
   126.55    0.235   0.232   0.232   0.222   0.225   0.217   0.214   0.233   0.222   0.240   0.247   0.259   0.250   0.265   0.256   0.258   0.243   0.253   0.246   0.239   0.241   0.238   0.241   0.243   0.239   0.252   0.265   0.277   0.274   0.268   0.275   0.264   0.276   0.275   0.264
   121.90    0.224   0.234   0.214   0.225   0.239   0.234   0.220   0.221   0.241   0.238   0.255   0.249   0.243   0.250   0.256   0.251   0.250   0.239   0.230   0.234   0.225   0.229   0.241   0.234   0.247   0.262   0.269   0.280   0.274   0.272   0.265   0.260   0.278   0.279   0.281
   117.25    0.246   0.248   0.216   0.223   0.232   0.240   0.233   0.226   0.246   0.254   0.253   0.244   0.236   0.235   0.264   0.258   0.245   0.242   0.234   0.233   0.233   0.221   0.224   0.235   0.253   0.269   0.272   0.283   0.279   0.264   0.261   0.265   0.289   0.288   0.295
   112.60    0.249   0.241   0.248   0.221   0.234   0.242   0.253   0.248   0.256   0.288   0.273   0.251   0.267   0.239   0.247   0.262   0.253   0.243   0.260   0.237   0.230   0.232   0.236   0.252   0.264   0.258   0.275   0.275   0.266   0.270   0.273   0.281   0.297   0.292   0.291
   107.95    0.250   0.249   0.243   0.238   0.231   0.230   0.260   0.270   0.275   0.284   0.257   0.260   0.257   0.238   0.238   0.254   0.257   0.277   0.254   0.251   0.232   0.230   0.231   0.251   0.264   0.268   0.273   0.258   0.260   0.258   0.269   0.278   0.272   0.289   0.294
   103.30    0.228   0.224   0.236   0.221   0.243   0.248   0.250   0.258   0.266   0.262   0.270   0.254   0.253   0.268   0.246   0.266   0.281   0.281   0.268   0.244   0.227   0.260   0.265   0.264   0.269   0.276   0.258   0.258   0.257   0.259   0.271   0.268   0.281   0.296   0.298
    98.65    0.242   0.236   0.234   0.233   0.244   0.258   0.244   0.247   0.244   0.267   0.258   0.246   0.244   0.260   0.262   0.270   0.279   0.263   0.265   0.245   0.241   0.268   0.263   0.261   0.260   0.251   0.268   0.255   0.249   0.272   0.268   0.273   0.289   0.305   0.307
    94.00    0.249   0.258   0.241   0.255   0.254   0.266   0.263   0.255   0.247   0.256   0.257   0.262   0.254   0.263   0.284   0.300   0.271   0.278   0.277   0.253   0.267   0.281   0.273   0.263   0.259   0.254   0.258   0.255   0.254   0.270   0.266   0.293   0.298   0.292   0.301
    89.35    0.242   0.247   0.253   0.251   0.253   0.266   0.271   0.271   0.271   0.268   0.262   0.255   0.257   0.287   0.279   0.280   0.290   0.281   0.280   0.282   0.287   0.272   0.285   0.269   0.267   0.256   0.247   0.242   0.270   0.259   0.267   0.281   0.283   0.300   0.311
    84.70    0.248   0.255   0.248   0.247   0.260   0.268   0.278   0.279   0.276   0.263   0.267   0.275   0.273   0.262   0.290   0.289   0.281   0.291   0.306   0.301   0.281   0.277   0.287   0.278   0.264   0.251   0.242   0.249   0.259   0.254   0.259   0.276   0.291   0.310   0.323
    80.05    0.256   0.254   0.241   0.252   0.267   0.258   0.269   0.278   0.268   0.257   0.266   0.293   0.279   0.285   0.278   0.286   0.304   0.287   0.298   0.302   0.285   0.284   0.281   0.281   0.279   0.268   0.252   0.253   0.267   0.289   0.301   0.315   0.334   0.298   0.304
    75.40    0.266   0.242   0.248   0.260   0.256   0.270   0.258   0.265   0.273   0.265   0.284   0.308   0.289   0.296   0.302   0.273   0.294   0.298   0.277   0.287   0.286   0.293   0.282   0.280   0.283   0.287   0.272   0.270   0.271   0.301   0.306   0.319   0.313   0.313   0.302
    70.75    0.252   0.248   0.241   0.259   0.265   0.264   0.271   0.267   0.282   0.271   0.289   0.310   0.306   0.304   0.285   0.276   0.292   0.304   0.298   0.292   0.299   0.312   0.302   0.301   0.298   0.286   0.283   0.291   0.295   0.306   0.282   0.293   0.290   0.307   0.297
    66.10    0.242   0.252   0.248   0.253   0.264   0.275   0.262   0.251   0.275   0.269   0.284   0.300   0.316   0.296   0.290   0.284   0.307   0.317   0.321   0.295   0.287   0.300   0.298   0.301   0.310   0.311   0.305   0.315   0.309   0.292   0.278   0.286   0.279   0.287   0.278
    61.45    0.250   0.258   0.264   0.266   0.251   0.260   0.257   0.253   0.276   0.286   0.281   0.299   0.310   0.306   0.305   0.301   0.312   0.333   0.309   0.299   0.291   0.283   0.295   0.283   0.300   0.306   0.305   0.320   0.317   0.278   0.290   0.284   0.273   0.274   0.277
    56.80    0.275   0.262   0.244   0.258   0.252   0.259   0.260   0.261   0.292   0.297   0.309   0.303   0.298   0.331   0.314   0.299   0.326   0.325   0.321   0.310   0.300   0.297   0.280   0.279   0.293   0.314   0.329   0.327   0.317   0.284   0.274   0.282   0.292   0.286   0.276
    52.15    0.282   0.275   0.251   0.268   0.255   0.263   0.277   0.270   0.296   0.304   0.278   0.298   0.294   0.301   0.300   0.327   0.322   0.316   0.297   0.294   0.287   0.298   0.279   0.290   0.311   0.329   0.333   0.320   0.303   0.313   0.300   0.334   0.320   0.294   0.297
    47.50    0.313   0.290   0.269   0.278   0.263   0.261   0.267   0.265   0.279   0.274   0.270   0.273   0.294   0.292   0.290   0.313   0.311   0.294   0.280   0.278   0.291   0.296   0.283   0.300   0.309   0.326   0.332   0.322   0.313   0.320   0.323   0.336   0.355   0.329   0.330
    42.85    0.320   0.302   0.288   0.271   0.259   0.276   0.264   0.257   0.263   0.258   0.263   0.274   0.278   0.288   0.307   0.301   0.304   0.285   0.277   0.286   0.288   0.303   0.285   0.289   0.309   0.310   0.313   0.345   0.338   0.317   0.305   0.326   0.350   0.347   0.343
    38.20    0.295   0.293   0.288   0.256   0.273   0.272   0.274   0.269   0.249   0.245   0.242   0.268   0.280   0.293   0.304   0.293   0.307   0.312   0.305   0.303   0.294   0.298   0.287   0.279   0.283   0.295   0.311   0.338   0.337   0.340   0.331   0.349   0.371   0.377   0.347
    33.55    0.298   0.265   0.273   0.257   0.263   0.246   0.265   0.250   0.248   0.231   0.244   0.268   0.294   0.301   0.294   0.300   0.291   0.280   0.290   0.303   0.307   0.322   0.307   0.291   0.286   0.298   0.330   0.340   0.344   0.349   0.335   0.345   0.356   0.366   0.348
    28.90    0.291   0.280   0.246   0.240   0.249   0.261   0.251   0.266   0.262   0.249   0.248   0.264   0.289   0.291   0.310   0.303   0.281   0.273   0.283   0.290   0.290   0.317   0.311   0.298   0.284   0.299   0.324   0.347   0.339   0.352   0.353   0.353   0.360   0.351   0.330
    24.25    0.290   0.280   0.262   0.252   0.267   0.259   0.253   0.260   0.257   0.247   0.248   0.256   0.284   0.305   0.314   0.307   0.286   0.292   0.296   0.286   0.273   0.302   0.304   0.292   0.288   0.293   0.312   0.314   0.328   0.343   0.341   0.357   0.348   0.335   0.322
    19.60    0.279   0.280   0.285   0.266   0.275   0.261   0.254   0.260   0.247   0.256   0.264   0.265   0.294   0.313   0.300   0.315   0.293   0.281   0.289   0.308   0.292   0.301   0.285   0.302   0.309   0.301   0.315   0.329   0.320   0.341   0.360   0.339   0.343   0.347   0.325
    14.95    0.276   0.271   0.292   0.290   0.287   0.280   0.283   0.263   0.247   0.264   0.276   0.275   0.281   0.286   0.285   0.300   0.290   0.279   0.282   0.308   0.319   0.290   0.305   0.325   0.298   0.300   0.311   0.321   0.334   0.350   0.355   0.343   0.330   0.322   0.321
    10.30    0.292   0.307   0.303   0.299   0.283   0.280   0.270   0.256   0.262   0.265   0.289   0.288   0.281   0.276   0.284   0.272   0.294   0.287   0.292   0.307   0.303   0.310   0.321   0.317   0.308   0.312   0.300   0.321   0.337   0.352   0.350   0.348   0.338   0.326   0.318
     5.65    0.300   0.294   0.313   0.321   0.322   0.299   0.285   0.293   0.278   0.280   0.291   0.294   0.285   0.293   0.300   0.295   0.299   0.304   0.312   0.307   0.302   0.313   0.305   0.303   0.301   0.303   0.312   0.322   0.322   0.325   0.319   0.335   0.345   0.325   0.303
     1.00    0.289   0.298   0.320   0.333   0.312   0.299   0.299   0.283   0.301   0.289   0.295   0.298   0.297   0.288   0.312   0.314   0.326   0.315   0.310   0.329   0.311   0.323   0.315   0.302   0.299   0.306   0.306   0.302   0.288   0.279   0.309   0.295   0.301   0.302   0.317

   Height   Standard deviation at grid points for the v component:
   168.40    0.255   0.243   0.239   0.230   0.226   0.227   0.232   0.225   0.216   0.226   0.227   0.222   0.211   0.213   0.223   0.213   0.210   0.213   0.218   0.207   0.204   0.232   0.238   0.241   0.247   0.242   0.243   0.246   0.230   0.218   0.235   0.245   0.233   0.242   0.252
   163.75    0.248   0.240   0.237   0.236   0.237   0.239   0.226   0.231   0.222   0.228   0.223   0.221   0.226   0.217   0.224   0.221   0.219   0.205   0.210   0.211   0.220   0.226   0.225   0.234   0.236   0.242   0.240   0.236   0.224   0.225   0.234   0.235   0.243   0.250   0.249
   159.10    0.236   0.232   0.236   0.224   0.228   0.227   0.225   0.220   0.217   0.213   0.227   0.220   0.225   0.220   0.218   0.223   0.224   0.218   0.206   0.210   0.219   0.213   0.217   0.218   0.225   0.224   0.235   0.229   0.223   0.222   0.231   0.222   0.231   0.240   0.240
   154.45    0.221   0.228   0.219   0.226   0.216   0.224   0.226   0.216   0.219   0.223   0.216   0.227   0.218   0.220   0.209   0.219   0.212   0.212   0.203   0.208   0.210   0.214   0.222   0.220   0.222   0.226   0.237   0.240   0.233   0.223   0.228   0.221   0.226   0.234   0.235
   149.80    0.220   0.223   0.212   0.215   0.211   0.211   0.210   0.213   0.218   0.219   0.213   0.230   0.236   0.223   0.211   0.215   0.217   0.206   0.205   0.213   0.206   0.212   0.207   0.219   0.222   0.216   0.242   0.233   0.224   0.230   0.228   0.225   0.222   0.225   0.225
   145.15    0.214   0.225   0.221   0.215   0.210   0.207   0.216   0.217   0.220   0.218   0.217   0.228   0.236   0.226   0.225   0.226   0.220   0.218   0.209   0.216   0.207   0.210   0.216   0.225   0.241   0.238   0.240   0.239   0.217   0.218   0.214   0.228   0.222   0.223   0.221
   140.50    0.221   0.218   0.217   0.220   0.218   0.229   0.225   0.220   0.220   0.233   0.234   0.216   0.231   0.236   0.224   0.233   0.218   0.216   0.212   0.214   0.204   0.226   0.242   0.223   0.230   0.230   0.244   0.231   0.224   0.219   0.229   0.238   0.226   0.222   0.229
   135.85    0.218   0.225   0.233   0.228   0.241   0.231   0.223   0.225   0.220   0.214   0.231   0.225   0.225   0.230   0.231   0.234   0.227   0.219   0.213   0.214   0.223   0.225   0.237   0.235   0.231   0.230   0.233   0.229   0.226   0.218   0.241   0.235   0.209   0.218   0.226
   131.20    0.207   0.226   0.228   0.231   0.239   0.231   0.213   0.206   0.218   0.203   0.216   0.228   0.232   0.243   0.232   0.226   0.224   0.221   0.210   0.213   0.215   0.230   0.232   0.222   0.224   0.226   0.229   0.223   0.217   0.224   0.237   0.228   0.225   0.230   0.236
   126.55    0.222   0.238   0.229   0.241   0.242   0.220   0.216   0.208   0.205   0.202   0.212   0.227   0.225   0.245   0.248   0.234   0.210   0.229   0.207   0.200   0.207   0.227   0.228   0.235   0.223   0.223   0.222   0.218   0.211   0.211   0.219   0.219   0.224   0.236   0.246
   121.90    0.218   0.232   0.240   0.251   0.238   0.223   0.206   0.212   0.203   0.210   0.221   0.222   0.227   0.243   0.240   0.228   0.219   0.221   0.206   0.206   0.201   0.202   0.220   0.213   0.221   0.217   0.205   0.209   0.225   0.232   0.217   0.213   0.222   0.226   0.236
   117.25    0.224   0.223   0.237   0.239   0.234   0.220   0.224   0.210   0.205   0.213   0.234   0.218   0.221   0.235   0.235   0.231   0.226   0.227   0.209   0.191   0.190   0.216   0.207   0.196   0.212   0.216   0.211   0.222   0.218   0.224   0.220   0.216   0.206   0.207   0.217
   112.60    0.231   0.230   0.223   0.221   0.236   0.226   0.215   0.215   0.219   0.217   0.211   0.221   0.232   0.218   0.229   0.218   0.216   0.219   0.195   0.185   0.195   0.202   0.217   0.210   0.207   0.223   0.218   0.225   0.219   0.229   0.225   0.218   0.208   0.215   0.226
   107.95    0.229   0.227   0.233   0.228   0.216   0.226   0.227   0.225   0.218   0.210   0.206   0.211   0.228   0.222   0.221   0.221   0.211   0.209   0.194   0.198   0.192   0.196   0.205   0.217   0.224   0.224   0.210   0.220   0.229   0.229   0.219   0.211   0.214   0.210   0.216
   103.30    0.238   0.234   0.234   0.223   0.220   0.226   0.221   0.219   0.215   0.214   0.205   0.202   0.220   0.223   0.209   0.216   0.215   0.211   0.201   0.200   0.201   0.219   0.225   0.220   0.224   0.229   0.225   0.218   0.227   0.227   0.210   0.203   0.205   0.216   0.217
    98.65    0.224   0.214   0.225   0.218   0.227   0.220   0.222   0.221   0.219   0.214   0.213   0.217   0.229   0.224   0.219   0.218   0.216   0.211   0.206   0.211   0.218   0.213   0.209   0.209   0.225   0.222   0.220   0.238   0.219   0.231   0.220   0.211   0.208   0.221   0.212
    94.00    0.214   0.226   0.222   0.227   0.225   0.224   0.235   0.240   0.226   0.213   0.215   0.232   0.230   0.231   0.236   0.229   0.225   0.223   0.211   0.222   0.225   0.220   0.208   0.201   0.222   0.227   0.231   0.235   0.231   0.215   0.230   0.223   0.218   0.215   0.221
    89.35    0.225   0.232   0.237   0.224   0.234   0.232   0.240   0.236   0.225   0.223   0.233   0.234   0.242   0.234   0.231   0.221   0.220   0.220   0.228   0.235   0.231   0.228   0.226   0.219   0.214   0.223   0.227   0.234   0.223   0.224   0.224   0.214   0.214   0.217   0.214
    84.70    0.225   0.225   0.238   0.235   0.225   0.235   0.257   0.252   0.242   0.236   0.234   0.242   0.223   0.227   0.233   0.217   0.227   0.228   0.227   0.230   0.243   0.243   0.236   0.235   0.214   0.209   0.210   0.224   0.225   0.222   0.219   0.218   0.212   0.217   0.212
    80.05    0.210   0.223   0.235   0.241   0.235   0.241   0.261   0.260   0.258   0.248   0.241   0.251   0.236   0.234   0.238   0.223   0.224   0.233   0.229   0.240   0.229   0.239   0.238   0.238   0.222   0.213   0.209   0.222   0.224   0.218   0.227   0.218   0.218   0.211   0.209
    75.40    0.222   0.224   0.236   0.246   0.237   0.246   0.252   0.260   0.259   0.261   0.251   0.250   0.244   0.235   0.231   0.228   0.237   0.237   0.229   0.236   0.228   0.228   0.237   0.228   0.224   0.206   0.218   0.216   0.222   0.220   0.217   0.203   0.204   0.202   0.202
    70.75    0.212   0.225   0.239   0.247   0.242   0.235   0.257   0.264   0.253   0.256   0.244   0.243   0.239   0.233   0.227   0.208   0.224   0.229   0.219   0.228   0.226   0.227   0.225   0.219   0.225   0.226   0.211   0.213   0.217   0.205   0.214   0.204   0.194   0.203   0.206
    66.10    0.203   0.207   0.240   0.243   0.248   0.239   0.248   0.248   0.246   0.246   0.235   0.226   0.232   0.219   0.212   0.208   0.220   0.224   0.220   0.220   0.236   0.222   0.223   0.224   0.220   0.210   0.221   0.221   0.225   0.214   0.213   0.213   0.208   0.210   0.203
    61.45    0.222   0.212   0.244   0.244   0.245   0.246   0.253   0.241   0.232   0.238   0.230   0.223   0.224   0.216   0.208   0.221   0.230   0.216   0.223   0.220   0.220   0.226   0.222   0.233   0.213   0.220   0.222   0.213   0.217   0.217   0.208   0.204   0.215   0.205   0.208
    56.80    0.220   0.229   0.240   0.240   0.246   0.245   0.241   0.242   0.251   0.243   0.225   0.229   0.228   0.226   0.213   0.219   0.221   0.217   0.223   0.215   0.213   0.212   0.216   0.219   0.206   0.199   0.208   0.209   0.204   0.212   0.204   0.203   0.217   0.206   0.209
    52.15    0.246   0.238   0.244   0.248   0.243   0.234   0.231   0.229   0.242   0.238   0.235   0.229   0.226   0.227   0.211   0.208   0.215   0.217   0.211   0.211   0.212   0.219   0.216   0.204   0.195   0.202   0.205   0.196   0.201   0.203   0.210   0.208   0.216   0.217   0.219
    47.50    0.257   0.243   0.240   0.232   0.245   0.246   0.245   0.235   0.232   0.240   0.236   0.226   0.221   0.216   0.210   0.199   0.210   0.212   0.210   0.205   0.216   0.217   0.216   0.208   0.208   0.201   0.196   0.192   0.192   0.197   0.210   0.227   0.226   0.237   0.223
    42.85    0.246   0.257   0.249   0.246   0.246   0.233   0.241   0.238   0.234   0.235   0.218   0.223   0.223   0.207   0.214   0.218   0.208   0.210   0.204   0.211   0.211   0.211   0.221   0.210   0.212   0.201   0.192   0.205   0.193   0.201   0.206   0.213   0.226   0.222   0.225
    38.20    0.258   0.247   0.241   0.244   0.240   0.235   0.226   0.216   0.229   0.233   0.223   0.216   0.204   0.207   0.213   0.225   0.221   0.219   0.220   0.229   0.217   0.220   0.209   0.211   0.199   0.198   0.206   0.206   0.201   0.203   0.206   0.215   0.208   0.204   0.207
    33.55    0.247   0.239   0.241   0.241   0.237   0.234   0.224   0.222   0.229   0.218   0.232   0.216   0.208   0.209   0.213   0.215   0.218   0.226   0.234   0.232   0.216   0.212   0.210   0.203   0.208   0.208   0.197   0.205   0.202   0.203   0.209   0.204   0.201   0.209   0.204
    28.90    0.231   0.230   0.221   0.229   0.242   0.228   0.217   0.225   0.224   0.224   0.227   0.219   0.225   0.228   0.220   0.217   0.214   0.231   0.241   0.226   0.226   0.215   0.212   0.210   0.215   0.209   0.198   0.202   0.211   0.210   0.208   0.201   0.202   0.198   0.201
    24.25    0.226   0.222   0.219   0.232   0.239   0.228   0.215   0.214   0.215   0.223   0.226   0.226   0.228   0.225   0.233   0.232   0.234   0.226   0.232   0.228   0.219   0.223   0.209   0.213   0.215   0.210   0.200   0.196   0.198   0.211   0.209   0.202   0.200   0.205   0.206
    19.60    0.227   0.229   0.217   0.237   0.248   0.223   0.211   0.217   0.208   0.226   0.233   0.235   0.234   0.230   0.230   0.237   0.221   0.223   0.218   0.224   0.226   0.216   0.207   0.227   0.232   0.211   0.217   0.201   0.203   0.207   0.208   0.205   0.212   0.216   0.206
    14.95    0.229   0.225   0.237   0.240   0.244   0.224   0.225   0.221   0.216   0.222   0.238   0.221   0.222   0.224   0.247   0.235   0.232   0.214   0.219   0.218   0.217   0.220   0.220   0.231   0.224   0.223   0.216   0.209   0.203   0.194   0.206   0.201   0.203   0.205   0.197
    10.30    0.233   0.245   0.236   0.237   0.243   0.230   0.218   0.218   0.224   0.216   0.227   0.229   0.235   0.230   0.241   0.238   0.230   0.228   0.232   0.211   0.213   0.215   0.221   0.215   0.227   0.226   0.225   0.202   0.214   0.209   0.220   0.210   0.200   0.193   0.199
     5.65    0.227   0.230   0.243   0.226   0.234   0.218   0.221   0.222   0.226   0.224   0.228   0.221   0.224   0.232   0.232   0.235   0.228   0.226   0.221   0.219   0.219   0.223   0.214   0.219   0.222   0.219   0.219   0.225   0.213   0.216   0.230   0.210   0.204   0.202   0.207
     1.00    0.227   0.230   0.238   0.231   0.235   0.233   0.236   0.237   0.232   0.236   0.231   0.231   0.227   0.243   0.236   0.228   0.233   0.235   0.221   0.209   0.219   0.229   0.229   0.223   0.217   0.222   0.214   0.225   0.216   0.223   0.227   0.212   0.212   0.202   0.194

   Height   Standard deviation at grid points for the w component:
   168.40    0.151   0.150   0.146   0.142   0.150   0.150   0.149   0.152   0.152   0.142   0.145   0.143   0.139   0.140   0.142   0.146   0.154   0.158   0.154   0.155   0.156   0.145   0.147   0.141   0.144   0.143   0.142   0.142   0.140   0.144   0.141   0.140   0.143   0.142   0.142
   163.75    0.148   0.150   0.146   0.145   0.148   0.151   0.154   0.151   0.152   0.149   0.143   0.145   0.145   0.144   0.146   0.153   0.152   0.155   0.151   0.152   0.151   0.148   0.142   0.142   0.144   0.143   0.139   0.140   0.145   0.142   0.139   0.139   0.143   0.139   0.145
   159.10    0.145   0.143   0.149   0.146   0.152   0.154   0.153   0.149   0.154   0.152   0.150   0.148   0.150   0.141   0.142   0.142   0.144   0.149   0.147   0.152   0.146   0.140   0.139   0.139   0.141   0.139   0.135   0.140   0.142   0.144   0.139   0.141   0.144   0.144   0.144
   154.45    0.146   0.149   0.147   0.146   0.151   0.148   0.151   0.152   0.152   0.151   0.149   0.146   0.150   0.143   0.140   0.142   0.141   0.139   0.145   0.144   0.146   0.140   0.137   0.138   0.138   0.139   0.143   0.140   0.139   0.137   0.139   0.139   0.146   0.144   0.140
   149.80    0.150   0.153   0.150   0.148   0.154   0.159   0.151   0.152   0.143   0.148   0.145   0.145   0.142   0.144   0.140   0.143   0.147   0.144   0.142   0.142   0.139   0.145   0.136   0.137   0.138   0.139   0.138   0.144   0.145   0.137   0.138   0.143   0.139   0.148   0.144
   145.15    0.152   0.154   0.149   0.148   0.155   0.156   0.160   0.157   0.146   0.151   0.148   0.141   0.147   0.147   0.143   0.144   0.147   0.140   0.137   0.140   0.137   0.145   0.145   0.141   0.141   0.140   0.135   0.146   0.139   0.145   0.142   0.148   0.144   0.146   0.143
   140.50    0.156   0.155   0.155   0.151   0.155   0.161   0.157   0.150   0.159   0.157   0.147   0.143   0.142   0.144   0.143   0.146   0.146   0.140   0.138   0.145   0.139   0.137   0.141   0.136   0.140   0.141   0.140   0.144   0.142   0.142   0.142   0.141   0.141   0.149   0.148
   135.85    0.154   0.150   0.161   0.159   0.159   0.162   0.162   0.160   0.161   0.160   0.160   0.153   0.145   0.148   0.143   0.148   0.145   0.144   0.144   0.142   0.140   0.137   0.141   0.140   0.135   0.135   0.135   0.139   0.142   0.140   0.146   0.144   0.149   0.146   0.151
   131.20    0.152   0.155   0.158   0.159   0.157   0.159   0.165   0.162   0.164   0.159   0.156   0.152   0.148   0.150   0.148   0.149   0.145   0.140   0.144   0.148   0.141   0.141   0.136   0.140   0.136   0.134   0.134   0.139   0.140   0.137   0.144   0.147   0.147   0.144   0.150
   126.55    0.149   0.151   0.147   0.152   0.158   0.155   0.161   0.167   0.160   0.161   0.166   0.166   0.155   0.150   0.144   0.143   0.150   0.151   0.145   0.143   0.137   0.140   0.140   0.140   0.140   0.138   0.139   0.137   0.135   0.141   0.144   0.144   0.140   0.143   0.147
   121.90    0.152   0.145   0.147   0.146   0.148   0.150   0.159   0.162   0.159   0.162   0.165   0.161   0.153   0.149   0.146   0.148   0.150   0.153   0.146   0.146   0.140   0.137   0.135   0.142   0.137   0.138   0.134   0.137   0.135   0.137   0.139   0.139   0.139   0.135   0.148
   117.25    0.147   0.153   0.145   0.144   0.148   0.150   0.158   0.161   0.164   0.165   0.164   0.162   0.156   0.152   0.149   0.147   0.148   0.151   0.143   0.145   0.134   0.136   0.139   0.140   0.139   0.139   0.138   0.134   0.134   0.128   0.136   0.139   0.141   0.138   0.148
   112.60    0.151   0.152   0.148   0.148   0.148   0.149   0.160   0.164   0.163   0.169   0.166   0.159   0.154   0.149   0.152   0.146   0.145   0.139   0.144   0.145   0.142   0.138   0.137   0.136   0.141   0.132   0.132   0.135   0.135   0.137   0.137   0.140   0.144   0.146   0.148
   107.95    0.150   0.152   0.146   0.153   0.144   0.144   0.150   0.154   0.163   0.165   0.162   0.158   0.154   0.151   0.145   0.144   0.145   0.144   0.140   0.145   0.147   0.142   0.135   0.137   0.141   0.139   0.136   0.145   0.146   0.137   0.142   0.140   0.144   0.151   0.151
   103.30    0.150   0.147   0.148   0.149   0.147   0.146   0.150   0.151   0.155   0.162   0.159   0.153   0.152   0.145   0.142   0.144   0.145   0.143   0.140   0.142   0.142   0.144   0.142   0.136   0.144   0.142   0.142   0.139   0.145   0.145   0.142   0.144   0.145   0.150   0.154
    98.65    0.151   0.148   0.147   0.149   0.143   0.143   0.150   0.147   0.159   0.159   0.151   0.144   0.146   0.145   0.143   0.145   0.144   0.142   0.143   0.135   0.142   0.139   0.138   0.139   0.142   0.143   0.145   0.143   0.145   0.146   0.147   0.139   0.143   0.155   0.152
    94.00    0.154   0.157   0.153   0.152   0.148   0.146   0.149   0.152   0.158   0.156   0.147   0.142   0.144   0.146   0.143   0.138   0.137   0.144   0.146   0.142   0.143   0.137   0.132   0.136   0.141   0.144   0.144   0.143   0.145   0.145   0.145   0.149   0.152   0.152   0.159
    89.35    0.150   0.150   0.149   0.144   0.144   0.140   0.143   0.143   0.149   0.149   0.146   0.140   0.146   0.142   0.148   0.146   0.146   0.143   0.148   0.144   0.145   0.143   0.136   0.131   0.137   0.136   0.136   0.142   0.144   0.145   0.154   0.157   0.155   0.156   0.158
    84.70    0.146   0.144   0.147   0.141   0.141   0.140   0.139   0.138   0.142   0.147   0.140   0.137   0.140   0.146   0.148   0.144   0.142   0.149   0.152   0.146   0.135   0.139   0.135   0.131   0.133   0.136   0.139   0.140   0.144   0.151   0.158   0.158   0.153   0.153   0.154
    80.05    0.150   0.143   0.142   0.141   0.139   0.140   0.145   0.142   0.138   0.138   0.137   0.141   0.143   0.145   0.140   0.140   0.144   0.143   0.149   0.148   0.141   0.135   0.128   0.130   0.131   0.134   0.134   0.139   0.149   0.150   0.155   0.162   0.164   0.154   0.153
    75.40    0.155   0.143   0.142   0.140   0.142   0.143   0.143   0.140   0.136   0.138   0.139   0.141   0.137   0.140   0.145   0.149   0.142   0.149   0.149   0.153   0.149   0.140   0.139   0.138   0.135   0.136   0.135   0.139   0.144   0.149   0.149   0.154   0.151   0.152   0.156
    70.75    0.154   0.147   0.145   0.141   0.143   0.143   0.142   0.139   0.138   0.140   0.142   0.142   0.141   0.140   0.146   0.146   0.143   0.141   0.145   0.145   0.149   0.143   0.146   0.136   0.138   0.134   0.141   0.136   0.145   0.150   0.147   0.149   0.151   0.153   0.153
    66.10    0.152   0.144   0.144   0.142   0.147   0.142   0.142   0.138   0.138   0.136   0.144   0.145   0.145   0.144   0.150   0.141   0.141   0.140   0.138   0.142   0.147   0.146   0.142   0.143   0.139   0.139   0.142   0.143   0.147   0.143   0.146   0.147   0.150   0.150   0.150
    61.45    0.142   0.150   0.147   0.152   0.148   0.140   0.131   0.137   0.134   0.139   0.137   0.140   0.147   0.147   0.143   0.140   0.137   0.137   0.145   0.145   0.141   0.140   0.143   0.141   0.139   0.139   0.140   0.142   0.149   0.142   0.142   0.148   0.144   0.150   0.149
    56.80    0.136   0.141   0.150   0.150   0.145   0.142   0.136   0.137   0.135   0.136   0.138   0.141   0.143   0.149   0.141   0.140   0.136   0.136   0.142   0.139   0.140   0.142   0.147   0.145   0.142   0.137   0.144   0.146   0.147   0.146   0.142   0.147   0.141   0.158   0.152
    52.15    0.129   0.139   0.143   0.144   0.141   0.139   0.136   0.133   0.135   0.140   0.134   0.138   0.141   0.142   0.142   0.141   0.137   0.144   0.146   0.150   0.150   0.150   0.146   0.143   0.141   0.134   0.139   0.145   0.142   0.146   0.142   0.145   0.149   0.146   0.155
    47.50    0.141   0.143   0.143   0.144   0.142   0.134   0.136   0.138   0.140   0.142   0.137   0.140   0.145   0.148   0.150   0.138   0.145   0.144   0.149   0.154   0.149   0.145   0.148   0.143   0.141   0.137   0.136   0.139   0.142   0.139   0.140   0.141   0.145   0.148   0.153
    42.85    0.142   0.146   0.144   0.149   0.144   0.139   0.139   0.138   0.141   0.142   0.142   0.140   0.147   0.143   0.143   0.143   0.143   0.147   0.150   0.154   0.145   0.147   0.146   0.149   0.139   0.138   0.138   0.138   0.139   0.141   0.143   0.143   0.147   0.146   0.143
    38.20    0.142   0.144   0.150   0.146   0.150   0.146   0.140   0.139   0.141   0.145   0.145   0.143   0.145   0.140   0.143   0.142   0.144   0.145   0.148   0.150   0.148   0.148   0.156   0.149   0.143   0.138   0.138   0.141   0.141   0.141   0.145   0.145   0.144   0.140   0.141
    33.55    0.141   0.144   0.148   0.141   0.151   0.147   0.139   0.138   0.136   0.142   0.140   0.144   0.143   0.147   0.143   0.147   0.145   0.144   0.147   0.152   0.150   0.148   0.153   0.146   0.142   0.138   0.140   0.146   0.150   0.152   0.154   0.151   0.151   0.142   0.137
    28.90    0.147   0.145   0.149   0.146   0.148   0.148   0.149   0.140   0.143   0.143   0.139   0.137   0.141   0.144   0.145   0.149   0.151   0.150   0.148   0.150   0.148   0.150   0.152   0.151   0.144   0.145   0.143   0.145   0.147   0.154   0.156   0.149   0.144   0.150   0.145
    24.25    0.146   0.147   0.150   0.154   0.150   0.146   0.143   0.138   0.144   0.143   0.141   0.141   0.144   0.145   0.147   0.152   0.152   0.145   0.149   0.149   0.148   0.146   0.150   0.153   0.148   0.146   0.139   0.141   0.145   0.151   0.154   0.151   0.143   0.140   0.142
    19.60    0.147   0.153   0.158   0.153   0.145   0.145   0.144   0.147   0.153   0.146   0.146   0.143   0.146   0.147   0.150   0.152   0.149   0.138   0.138   0.146   0.145   0.147   0.143   0.153   0.151   0.148   0.146   0.145   0.143   0.151   0.152   0.152   0.150   0.142   0.148
    14.95    0.146   0.148   0.156   0.146   0.147   0.153   0.144   0.149   0.155   0.148   0.152   0.141   0.151   0.151   0.148   0.145   0.146   0.139   0.139   0.143   0.150   0.144   0.147   0.148   0.144   0.152   0.155   0.152   0.146   0.153   0.150   0.150   0.151   0.148   0.148
    10.30    0.140   0.140   0.152   0.146   0.149   0.154   0.151   0.143   0.150   0.148   0.148   0.144   0.150   0.146   0.148   0.143   0.140   0.143   0.138   0.140   0.144   0.143   0.141   0.149   0.144   0.150   0.146   0.145   0.143   0.147   0.148   0.153   0.147   0.146   0.151
     5.65    0.141   0.145   0.149   0.146   0.142   0.146   0.147   0.146   0.148   0.145   0.144   0.149   0.153   0.148   0.145   0.144   0.146   0.149   0.141   0.139   0.141   0.139   0.142   0.148   0.152   0.150   0.143   0.144   0.144   0.139   0.140   0.143   0.146   0.150   0.152
     1.00    0.144   0.144   0.143   0.144   0.144   0.141   0.138   0.150   0.142   0.145   0.143   0.151   0.154   0.145   0.145   0.147   0.144   0.148   0.142   0.144   0.138   0.135   0.142   0.148   0.145   0.150   0.144   0.141   0.141   0.144   0.144   0.144   0.145   0.150   0.148

   Mean standard deviation across all grid points:
      u component:    0.273 m/s
      v component:    0.223 m/s
      w component:    0.145 m/s


U-component (X) statistics from the interpolated hub point:

   Mean =   9.9913 m/s
   TI   =   2.8081 %


Processing complete.  6380.4 CPU seconds used.
