
This summary file was generated by TurbSim (from OpenFAST-v3.5.3) on 20-Apr-2025 at 03:05:24.


Runtime Options:

1682697194  Random seed #1
    RANLUX  Type of random number generator
         F  Output binary HH turbulence parameters?
         F  Output formatted turbulence parameters?
         F  Output AeroDyn HH files?
         T  Output AeroDyn FF files?
         F  Output BLADED FF files?
         F  Output tower data?
         F  Output HAWC FF files?
         F  Output formatted FF files?
         T  Output coherent turbulence time step file?
 0 -  NONE  IEC turbulence models scaled to exact specified standard deviation


Turbine/Model Specifications:

        37  Vertical grid-point matrix dimension
        35  Horizontal grid-point matrix dimension
     0.250  Time step [seconds]
   900.000  Analysis time [seconds]
   900.000  Usable output time [seconds]
    89.350  Hub height [m]
   167.400  Grid height [m]
   158.100  Grid width [m]
     0.000  Vertical flow angle [degrees]
     0.000  Horizontal flow angle [degrees]


Meteorological Boundary Conditions:

    TIMESR  User-input time series spectral model
       N/A  IEC standard
       N/A  IEC turbulence characteristic
       N/A  IEC turbulence type
       N/A  IEC Extreme Turbulence Model (ETM) "c" parameter [m/s]
       PL   Wind profile type
    90.000  Reference height [m]
    10.000  Reference wind speed [m/s]
       N/A  Jet height [m]
     0.120  Power law exponent
     0.030  Surface roughness length [m]


Non-IEC Meteorological Boundary Conditions:

    45.000  Site latitude [degrees]
     0.050  Gradient Richardson number
     0.480  Friction or shear velocity [m/s]
       N/A  Mixing layer depth [m]
       N/A  Mean hub u'w' Reynolds stress
       N/A  Mean hub u'v' Reynolds stress
       N/A  Mean hub v'w' Reynolds stress


Spatial Coherence Models:

       IEC  u-component coherence model
       IEC  v-component coherence model
       IEC  w-component coherence model
(   12.000, 0.353E-03)  u-component coherence parameters
(   12.000, 0.353E-03)  v-component coherence parameters
(   12.000, 0.353E-03)  w-component coherence parameters
       N/A  Coherence exponent


Coherent Turbulence Scaling Parameters:

.\EventData
            Name of the path containing the coherent turbulence data files
       les  Type of coherent turbulence data files
     0.500  Disturbance scale (ratio of wave height to rotor diameter)
     0.500  Fractional location of tower centerline from right
     0.000  Fractional location of hub height from the bottom of the dataset
    30.000  Minimum start time for coherent structures [seconds]


Profiles from User-Defined Time-Series Input:

  Height   Wind Speed   Horizontal Angle   Vertical Angle
   (m)        (m/s)          (deg)              (deg)    
  ------   ----------   ----------------   --------------
   94.00      10.00          -0.63                0.00


You have requested that the following file(s) be generated:

   /kfs3/scratch/agupta/Projects/RL_Incubator/FinalRuns_Veer/Seed4/./FFSim_Seed4/Cond00_v10.0_PL0.12_TI7.5/Case0_wdirp00/Seed_5/TurbSim/HighT8.bts (AeroDyn/TurbSim full-field wind file)


Turbulence Simulation Scaling Parameter Summary:

   Turbulence model used                            =  User-input time series
   Gradient Richardson number                       =    0.050
   Monin-Obukhov (M-O) z/L parameter                =    0.067
   Monin-Obukhov (M-O) length scale                 = 1340.250 m
   Mean wind speed at hub height                    =    9.991 m/s

   Wind profile type                                =  Power law
   Power law exponent                               =    0.120
   Mean shear across rotor disk                     =    0.019 (m/s)/m
   Assumed rotor diameter                           =  158.100 m
   Surface roughness length                         =    0.030 m

   Nyquist frequency of turbulent wind field        =    2.000 Hz

   Number of time steps in the FFT                  =     3600
   Number of time steps output                      =     3600
   Number of points simulated                       =     1296


Mean Flow Angles:

   Vertical   =   0.0 degrees
   Horizontal =   0.0 degrees

Mean Wind Speed Profile:

   Height    Wind Speed   Horizontal Angle  Vertical Angle  U-comp (X)   V-comp (Y)   W-comp (Z)
     (m)        (m/s)         (degrees)       (degrees)       (m/s)        (m/s)        (m/s)   
   ------    ----------   ----------------  --------------  ----------   ----------   ----------
    168.4       10.78            0.00            0.00         10.78         0.00         0.00
    163.7       10.74            0.00            0.00         10.74         0.00         0.00
    159.1       10.71            0.00            0.00         10.71         0.00         0.00
    154.4       10.67            0.00            0.00         10.67         0.00         0.00
    149.8       10.63            0.00            0.00         10.63         0.00         0.00
    145.1       10.59            0.00            0.00         10.59         0.00         0.00
    140.5       10.55            0.00            0.00         10.55         0.00         0.00
    135.8       10.51            0.00            0.00         10.51         0.00         0.00
    131.2       10.46            0.00            0.00         10.46         0.00         0.00
    126.5       10.42            0.00            0.00         10.42         0.00         0.00
    121.9       10.37            0.00            0.00         10.37         0.00         0.00
    117.2       10.32            0.00            0.00         10.32         0.00         0.00
    112.6       10.27            0.00            0.00         10.27         0.00         0.00
    107.9       10.22            0.00            0.00         10.22         0.00         0.00
    103.3       10.17            0.00            0.00         10.17         0.00         0.00
     98.6       10.11            0.00            0.00         10.11         0.00         0.00
     94.0       10.05            0.00            0.00         10.05         0.00         0.00
     89.3        9.99            0.00            0.00          9.99         0.00         0.00
     84.7        9.93            0.00            0.00          9.93         0.00         0.00
     80.0        9.86            0.00            0.00          9.86         0.00         0.00
     75.4        9.79            0.00            0.00          9.79         0.00         0.00
     70.7        9.72            0.00            0.00          9.72         0.00         0.00
     66.1        9.64            0.00            0.00          9.64         0.00         0.00
     61.4        9.55            0.00            0.00          9.55         0.00         0.00
     56.8        9.46            0.00            0.00          9.46         0.00         0.00
     52.1        9.37            0.00            0.00          9.37         0.00         0.00
     47.5        9.26            0.00            0.00          9.26         0.00         0.00
     42.8        9.15            0.00            0.00          9.15         0.00         0.00
     38.2        9.02            0.00            0.00          9.02         0.00         0.00
     33.5        8.88            0.00            0.00          8.88         0.00         0.00
     28.9        8.73            0.00            0.00          8.73         0.00         0.00
     24.2        8.54            0.00            0.00          8.54         0.00         0.00
     19.6        8.33            0.00            0.00          8.33         0.00         0.00
     14.9        8.06            0.00            0.00          8.06         0.00         0.00
     10.3        7.71            0.00            0.00          7.71         0.00         0.00
      5.6        7.17            0.00            0.00          7.17         0.00         0.00
      1.0        5.83            0.00            0.00          5.83         0.00         0.00


Harvested Random Seeds after Generation of the Random Numbers:

     65026800 K 1
            0 K 2


Hub-Height Simulated Turbulence Statistical Summary:

   Type of Wind        Min (m/s)   Mean (m/s)    Max (m/s)  Sigma (m/s)       TI (%)
   ----------------    ---------   ----------    ---------  -----------       ------
   Longitudinal (u)         7.68         9.99        12.60        0.779        7.792
   Lateral (v)             -1.81        -0.00         1.97        0.600        6.001
   Vertical (w)            -1.24         0.00         1.19        0.339        3.394
   U component              7.68         9.99        12.60        0.779        7.792
   V component             -1.81        -0.00         1.97        0.600        6.001
   W component             -1.24         0.00         1.19        0.339        3.394
   Horizontal (U&V)         7.69        10.01        12.60        0.779        7.778
   Total                    7.71        10.02        12.60        0.779        7.775

                       Min Reynolds     Mean Reynolds    Max Reynolds    Correlation
   Product             Stress (m/s)^2   Stress (m/s)^2   Stress (m/s)^2  Coefficient
   ----------------    --------------   --------------   --------------  -----------
   u'w'                     -1.347             0.018             1.383         0.067
   u'v'                     -2.425            -0.040             2.357        -0.085
   v'w'                     -1.201             0.009             1.546         0.045


   Friction Velocity (Ustar)  =      0.133 m/s
   Maximum Instantaneous TKE  =      3.414 (m/s)^2
   Maximum Instantaneous CTKE =      1.481 (m/s)^2


Grid Point Variance Summary:

   Y-coord  -79.05  -74.40  -69.75  -65.10  -60.45  -55.80  -51.15  -46.50  -41.85  -37.20  -32.55  -27.90  -23.25  -18.60  -13.95   -9.30   -4.65    0.00    4.65    9.30   13.95   18.60   23.25   27.90   32.55   37.20   41.85   46.50   51.15   55.80   60.45   65.10   69.75   74.40   79.05

   Height   Standard deviation at grid points for the u component:
   168.40    0.714   0.650   0.714   0.671   0.672   0.661   0.682   0.713   0.689   0.620   0.641   0.659   0.716   0.724   0.684   0.699   0.703   0.763   0.765   0.869   0.866   0.903   0.913   0.886   0.886   0.883   0.915   0.891   0.865   0.831   0.862   0.793   0.855   0.800   0.826
   163.75    0.704   0.681   0.644   0.669   0.655   0.670   0.644   0.689   0.716   0.639   0.650   0.775   0.765   0.761   0.775   0.755   0.737   0.725   0.818   0.920   0.924   0.935   0.906   0.962   0.951   0.869   0.851   0.880   0.885   0.883   0.814   0.854   0.834   0.824   0.732
   159.10    0.661   0.641   0.693   0.697   0.716   0.695   0.701   0.690   0.678   0.653   0.666   0.792   0.793   0.879   0.891   0.796   0.794   0.806   0.870   0.891   0.916   0.867   0.962   0.906   0.964   0.925   0.899   0.878   0.907   0.914   0.829   0.829   0.817   0.765   0.751
   154.45    0.684   0.691   0.697   0.643   0.637   0.636   0.654   0.676   0.741   0.718   0.776   0.771   0.809   0.843   0.787   0.800   0.869   0.863   0.910   0.891   0.902   0.862   0.878   0.955   0.964   0.915   0.920   0.899   0.882   0.820   0.888   0.810   0.839   0.826   0.821
   149.80    0.659   0.714   0.686   0.654   0.723   0.712   0.707   0.743   0.781   0.749   0.821   0.758   0.770   0.790   0.748   0.803   0.776   0.832   0.824   0.899   0.878   0.902   0.887   0.840   0.868   0.877   0.919   0.987   0.924   0.897   0.913   0.806   0.933   0.944   0.821
   145.15    0.693   0.667   0.607   0.680   0.736   0.708   0.725   0.771   0.827   0.814   0.821   0.828   0.846   0.758   0.751   0.764   0.799   0.790   0.850   0.829   0.920   0.911   0.840   0.855   0.793   0.860   0.935   0.912   0.942   0.949   0.890   0.880   0.912   0.891   0.876
   140.50    0.687   0.655   0.668   0.652   0.707   0.718   0.745   0.687   0.777   0.758   0.796   0.776   0.809   0.820   0.805   0.762   0.765   0.776   0.828   0.830   0.905   0.924   0.897   0.873   0.823   0.918   0.918   0.935   0.930   0.944   0.913   0.903   0.879   0.847   0.891
   135.85    0.699   0.676   0.690   0.697   0.788   0.739   0.729   0.723   0.735   0.724   0.812   0.858   0.873   0.907   0.830   0.811   0.752   0.712   0.776   0.853   0.937   0.890   0.838   0.838   0.826   0.917   0.946   0.985   0.979   0.972   0.943   0.877   0.842   0.804   0.888
   131.20    0.731   0.646   0.701   0.774   0.773   0.731   0.790   0.825   0.842   0.793   0.824   0.814   0.828   0.839   0.830   0.789   0.826   0.787   0.809   0.800   0.824   0.793   0.878   0.839   0.876   0.888   0.910   1.002   0.954   0.927   0.905   0.840   0.844   0.835   0.882
   126.55    0.685   0.666   0.702   0.745   0.761   0.755   0.748   0.790   0.741   0.828   0.888   0.908   0.886   0.874   0.885   0.854   0.788   0.829   0.833   0.775   0.745   0.755   0.803   0.842   0.855   0.895   0.920   0.994   0.962   0.912   0.864   0.852   0.897   0.948   0.901
   121.90    0.670   0.739   0.678   0.789   0.871   0.879   0.780   0.785   0.837   0.827   0.872   0.868   0.835   0.798   0.864   0.785   0.830   0.792   0.729   0.763   0.717   0.728   0.771   0.777   0.834   0.916   0.889   0.975   0.915   0.926   0.872   0.802   0.941   0.983   0.967
   117.25    0.793   0.797   0.704   0.804   0.827   0.825   0.838   0.799   0.852   0.852   0.838   0.830   0.763   0.770   0.834   0.785   0.800   0.858   0.792   0.748   0.733   0.720   0.720   0.776   0.846   0.849   0.906   0.938   0.942   0.901   0.868   0.858   0.949   0.960   1.012
   112.60    0.835   0.832   0.755   0.740   0.816   0.848   0.870   0.866   0.838   0.917   0.901   0.811   0.880   0.790   0.815   0.868   0.851   0.812   0.897   0.801   0.799   0.768   0.806   0.825   0.816   0.796   0.849   0.869   0.875   0.921   0.939   0.906   0.973   1.012   0.993
   107.95    0.882   0.845   0.771   0.783   0.795   0.774   0.850   0.873   0.935   0.903   0.815   0.872   0.876   0.799   0.761   0.852   0.814   0.891   0.842   0.840   0.799   0.770   0.789   0.838   0.823   0.818   0.856   0.827   0.825   0.872   0.928   0.918   0.890   0.966   1.022
   103.30    0.821   0.760   0.770   0.695   0.760   0.780   0.773   0.840   0.888   0.832   0.886   0.819   0.852   0.879   0.783   0.843   0.887   0.896   0.842   0.806   0.731   0.853   0.916   0.964   0.936   0.887   0.801   0.773   0.790   0.811   0.855   0.901   0.920   0.990   1.019
    98.65    0.825   0.792   0.747   0.699   0.740   0.792   0.772   0.811   0.796   0.882   0.881   0.817   0.826   0.815   0.800   0.854   0.830   0.799   0.834   0.787   0.758   0.847   0.891   0.897   0.886   0.787   0.850   0.776   0.809   0.856   0.843   0.934   0.953   1.004   1.052
    94.00    0.826   0.862   0.760   0.755   0.777   0.834   0.822   0.820   0.817   0.828   0.872   0.881   0.914   0.857   0.877   0.864   0.825   0.833   0.829   0.812   0.844   0.874   0.861   0.889   0.839   0.776   0.797   0.769   0.830   0.833   0.857   0.937   0.942   0.945   0.972
    89.35    0.821   0.839   0.845   0.760   0.810   0.865   0.872   0.878   0.886   0.923   0.881   0.839   0.887   0.964   0.859   0.847   0.879   0.779   0.816   0.901   0.877   0.875   0.891   0.862   0.858   0.832   0.793   0.783   0.872   0.848   0.819   0.836   0.868   0.963   1.035
    84.70    0.878   0.862   0.791   0.784   0.821   0.870   0.971   0.908   0.854   0.849   0.901   0.935   0.945   0.939   0.984   0.959   0.874   0.858   0.893   0.917   0.920   0.859   0.892   0.874   0.821   0.768   0.781   0.801   0.824   0.845   0.763   0.814   0.876   0.931   0.985
    80.05    0.912   0.866   0.795   0.790   0.841   0.843   0.939   0.967   0.881   0.837   0.857   0.959   0.979   1.033   0.969   0.997   0.980   0.892   0.923   0.921   0.928   0.894   0.898   0.909   0.905   0.883   0.784   0.759   0.848   0.841   0.876   0.888   0.907   0.863   0.910
    75.40    0.888   0.829   0.806   0.814   0.799   0.918   0.881   0.907   0.913   0.899   0.976   1.002   1.005   1.090   1.098   0.925   0.933   0.965   0.858   0.845   0.861   0.953   0.888   0.916   0.924   0.908   0.823   0.827   0.845   0.926   0.925   0.919   0.872   0.896   0.931
    70.75    0.846   0.878   0.773   0.846   0.882   0.897   0.928   0.947   1.005   0.937   0.977   1.039   1.106   1.140   1.054   0.942   0.952   1.007   0.917   0.883   0.954   0.987   0.961   0.983   0.943   0.893   0.849   0.890   0.895   0.959   0.908   0.870   0.908   0.943   0.930
    66.10    0.824   0.827   0.811   0.847   0.869   0.955   0.897   0.873   0.995   0.971   0.992   1.025   1.085   1.090   1.010   0.955   1.042   1.064   1.040   0.956   0.907   0.945   0.967   0.967   0.962   0.964   0.925   1.047   1.054   0.956   0.909   0.899   0.883   0.868   0.893
    61.45    0.824   0.892   0.926   0.923   0.838   0.915   0.875   0.895   0.976   1.026   0.957   1.005   1.007   1.077   1.072   1.039   1.033   1.132   1.069   1.000   0.929   0.877   0.959   0.902   0.986   1.003   0.986   1.085   1.115   0.998   0.996   0.930   0.898   0.892   0.952
    56.80    0.921   0.917   0.831   0.843   0.845   0.906   0.879   0.947   1.053   1.005   1.026   1.029   0.997   1.113   1.072   1.041   1.129   1.131   1.122   1.039   0.975   0.982   0.961   0.972   0.975   1.090   1.158   1.158   1.139   1.021   0.979   0.955   0.942   0.907   0.886
    52.15    0.870   0.887   0.777   0.818   0.842   0.879   0.929   0.948   1.007   1.017   0.947   1.008   0.951   1.005   1.054   1.151   1.157   1.087   1.053   1.019   0.977   0.981   0.961   1.016   1.075   1.139   1.203   1.091   1.059   1.093   1.042   1.082   1.041   0.953   0.948
    47.50    0.886   0.911   0.837   0.819   0.836   0.840   0.854   0.876   0.931   0.948   0.906   0.912   0.909   0.947   1.003   1.102   1.086   1.001   0.983   0.995   1.020   1.042   0.971   1.067   1.002   1.086   1.164   1.056   1.050   1.042   1.059   1.063   1.099   1.048   0.985
    42.85    0.885   0.931   0.843   0.873   0.855   0.957   0.894   0.892   0.887   0.829   0.872   0.893   0.923   0.964   1.039   1.047   1.030   0.969   0.966   0.987   1.024   1.068   0.976   1.004   1.054   1.033   1.104   1.154   1.040   0.946   0.934   1.073   1.073   1.140   1.089
    38.20    0.773   0.833   0.843   0.810   0.867   0.877   0.900   0.825   0.809   0.791   0.834   0.917   0.943   1.017   1.032   0.983   1.053   1.095   1.071   1.066   1.019   1.075   1.007   0.950   1.015   1.055   1.086   1.096   1.102   0.977   1.016   1.077   1.139   1.149   1.115
    33.55    0.816   0.748   0.770   0.798   0.822   0.775   0.821   0.795   0.762   0.769   0.760   0.863   0.970   1.052   1.011   1.063   1.020   0.983   1.001   1.051   1.042   1.138   1.090   1.015   1.000   1.031   1.084   1.092   1.084   1.014   1.033   1.041   1.037   1.127   1.062
    28.90    0.820   0.760   0.707   0.681   0.723   0.741   0.702   0.749   0.833   0.774   0.825   0.867   0.951   0.984   1.045   1.050   0.947   0.932   1.005   0.987   0.991   1.088   1.102   1.033   0.953   1.041   1.107   1.114   1.122   1.103   1.012   1.008   1.029   1.050   1.062
    24.25    0.775   0.769   0.730   0.716   0.785   0.752   0.715   0.741   0.758   0.772   0.795   0.841   0.917   0.964   1.036   1.023   0.925   0.985   1.024   0.979   0.951   1.032   1.058   0.955   0.951   1.030   1.057   1.037   1.022   1.064   0.994   1.019   0.992   1.053   0.985
    19.60    0.738   0.714   0.775   0.719   0.758   0.701   0.682   0.729   0.693   0.793   0.833   0.840   0.941   1.009   0.979   1.015   0.937   0.938   0.937   0.988   0.943   1.022   0.924   0.959   1.028   0.992   1.044   1.111   1.022   1.008   1.039   1.018   1.041   1.032   0.983
    14.95    0.731   0.694   0.800   0.777   0.775   0.773   0.797   0.748   0.737   0.807   0.851   0.883   0.925   0.889   0.863   0.881   0.905   0.907   0.926   0.961   0.912   0.904   0.965   1.064   1.010   1.018   1.075   1.039   1.060   1.109   1.041   1.045   0.993   1.004   0.938
    10.30    0.718   0.801   0.814   0.852   0.812   0.808   0.773   0.756   0.797   0.802   0.905   0.900   0.895   0.854   0.872   0.809   0.852   0.861   0.917   0.927   0.895   0.965   0.966   0.984   1.035   1.065   0.953   1.017   1.060   1.094   1.078   0.967   1.000   0.956   0.916
     5.65    0.795   0.848   0.810   0.895   0.856   0.838   0.803   0.867   0.859   0.841   0.882   0.908   0.864   0.848   0.863   0.796   0.817   0.845   0.856   0.920   0.926   0.987   0.931   0.922   0.946   0.951   0.952   0.983   0.956   0.970   0.974   0.982   0.974   0.902   0.884
     1.00    0.844   0.842   0.912   0.914   0.838   0.828   0.847   0.816   0.898   0.863   0.896   0.880   0.877   0.832   0.833   0.753   0.797   0.787   0.855   0.896   0.888   0.966   0.920   0.949   0.884   0.861   0.935   0.927   0.865   0.834   0.921   0.839   0.856   0.780   0.833

   Height   Standard deviation at grid points for the v component:
   168.40    0.675   0.701   0.673   0.687   0.692   0.651   0.673   0.608   0.598   0.644   0.630   0.592   0.596   0.598   0.624   0.648   0.601   0.568   0.603   0.585   0.594   0.644   0.690   0.724   0.719   0.650   0.643   0.573   0.523   0.494   0.528   0.570   0.536   0.523   0.529
   163.75    0.675   0.689   0.666   0.663   0.688   0.676   0.640   0.658   0.625   0.615   0.614   0.581   0.581   0.591   0.601   0.648   0.612   0.607   0.617   0.582   0.604   0.642   0.669   0.718   0.691   0.676   0.650   0.595   0.559   0.531   0.530   0.540   0.557   0.527   0.505
   159.10    0.667   0.658   0.653   0.642   0.661   0.651   0.670   0.625   0.620   0.603   0.636   0.595   0.593   0.601   0.618   0.669   0.672   0.657   0.679   0.680   0.615   0.594   0.635   0.627   0.675   0.696   0.680   0.629   0.590   0.537   0.523   0.522   0.528   0.506   0.518
   154.45    0.641   0.656   0.659   0.627   0.607   0.652   0.642   0.617   0.628   0.636   0.621   0.638   0.617   0.639   0.670   0.695   0.638   0.648   0.655   0.701   0.652   0.628   0.622   0.608   0.651   0.670   0.696   0.670   0.593   0.562   0.533   0.530   0.534   0.533   0.546
   149.80    0.612   0.614   0.620   0.631   0.624   0.630   0.608   0.621   0.636   0.622   0.589   0.635   0.654   0.628   0.649   0.663   0.688   0.626   0.637   0.674   0.672   0.639   0.678   0.644   0.644   0.625   0.682   0.620   0.569   0.571   0.576   0.577   0.530   0.554   0.590
   145.15    0.596   0.579   0.584   0.596   0.608   0.620   0.633   0.656   0.640   0.593   0.590   0.619   0.621   0.677   0.692   0.676   0.667   0.624   0.600   0.656   0.677   0.689   0.688   0.654   0.664   0.658   0.634   0.637   0.562   0.551   0.560   0.616   0.573   0.601   0.565
   140.50    0.566   0.553   0.573   0.592   0.619   0.602   0.627   0.653   0.616   0.602   0.587   0.588   0.624   0.649   0.688   0.692   0.627   0.629   0.618   0.647   0.637   0.656   0.681   0.617   0.636   0.667   0.647   0.634   0.597   0.574   0.607   0.595   0.616   0.589   0.577
   135.85    0.588   0.576   0.627   0.600   0.641   0.617   0.596   0.637   0.608   0.586   0.586   0.596   0.635   0.651   0.642   0.617   0.625   0.648   0.596   0.564   0.606   0.615   0.649   0.630   0.685   0.674   0.660   0.650   0.607   0.607   0.589   0.617   0.613   0.610   0.629
   131.20    0.583   0.608   0.578   0.604   0.625   0.636   0.621   0.577   0.614   0.572   0.580   0.626   0.635   0.609   0.622   0.602   0.602   0.595   0.564   0.567   0.572   0.581   0.603   0.604   0.637   0.690   0.701   0.639   0.601   0.621   0.615   0.599   0.633   0.614   0.577
   126.55    0.562   0.555   0.571   0.630   0.634   0.629   0.627   0.589   0.589   0.586   0.585   0.627   0.618   0.608   0.585   0.606   0.540   0.572   0.547   0.564   0.541   0.565   0.584   0.627   0.608   0.663   0.650   0.632   0.620   0.567   0.580   0.556   0.609   0.588   0.608
   121.90    0.536   0.554   0.589   0.659   0.621   0.593   0.579   0.590   0.615   0.575   0.594   0.598   0.610   0.592   0.625   0.563   0.536   0.567   0.536   0.549   0.541   0.521   0.583   0.604   0.615   0.631   0.637   0.633   0.645   0.610   0.569   0.581   0.584   0.576   0.603
   117.25    0.529   0.532   0.558   0.594   0.590   0.545   0.560   0.572   0.561   0.571   0.611   0.576   0.598   0.610   0.609   0.591   0.575   0.560   0.559   0.523   0.524   0.574   0.570   0.537   0.538   0.561   0.581   0.613   0.591   0.631   0.588   0.600   0.556   0.548   0.537
   112.60    0.547   0.552   0.539   0.526   0.543   0.532   0.551   0.569   0.535   0.553   0.561   0.571   0.573   0.596   0.585   0.580   0.620   0.570   0.557   0.552   0.560   0.528   0.557   0.534   0.527   0.568   0.554   0.594   0.623   0.632   0.640   0.582   0.538   0.522   0.555
   107.95    0.546   0.554   0.544   0.530   0.544   0.549   0.550   0.576   0.564   0.550   0.539   0.554   0.574   0.569   0.548   0.575   0.571   0.569   0.545   0.512   0.504   0.510   0.533   0.544   0.558   0.571   0.552   0.566   0.601   0.606   0.597   0.525   0.499   0.496   0.544
   103.30    0.545   0.571   0.542   0.519   0.540   0.547   0.578   0.569   0.564   0.545   0.549   0.535   0.552   0.581   0.558   0.607   0.598   0.565   0.527   0.534   0.545   0.562   0.582   0.566   0.556   0.551   0.560   0.561   0.541   0.557   0.528   0.548   0.518   0.516   0.571
    98.65    0.510   0.523   0.546   0.530   0.555   0.552   0.567   0.545   0.548   0.550   0.560   0.543   0.572   0.584   0.601   0.595   0.595   0.561   0.546   0.570   0.572   0.578   0.551   0.540   0.548   0.552   0.525   0.538   0.531   0.537   0.545   0.530   0.536   0.582   0.595
    94.00    0.470   0.516   0.534   0.570   0.550   0.557   0.587   0.592   0.578   0.555   0.563   0.566   0.570   0.609   0.640   0.623   0.614   0.574   0.557   0.545   0.569   0.553   0.536   0.530   0.536   0.527   0.536   0.526   0.514   0.514   0.535   0.543   0.572   0.577   0.606
    89.35    0.500   0.503   0.514   0.497   0.532   0.537   0.572   0.532   0.564   0.565   0.576   0.562   0.577   0.570   0.590   0.614   0.618   0.600   0.602   0.577   0.554   0.579   0.557   0.551   0.526   0.515   0.497   0.511   0.498   0.509   0.535   0.526   0.562   0.579   0.569
    84.70    0.478   0.474   0.511   0.512   0.514   0.553   0.573   0.569   0.585   0.564   0.536   0.563   0.529   0.550   0.588   0.600   0.619   0.620   0.623   0.568   0.602   0.612   0.584   0.555   0.523   0.499   0.474   0.510   0.498   0.535   0.496   0.486   0.500   0.546   0.559
    80.05    0.443   0.468   0.504   0.526   0.493   0.518   0.556   0.548   0.573   0.560   0.558   0.536   0.525   0.531   0.563   0.591   0.583   0.599   0.602   0.636   0.600   0.565   0.568   0.548   0.506   0.486   0.481   0.491   0.494   0.476   0.515   0.486   0.512   0.502   0.533
    75.40    0.478   0.497   0.501   0.530   0.517   0.519   0.501   0.507   0.541   0.541   0.528   0.517   0.537   0.529   0.574   0.557   0.560   0.601   0.608   0.640   0.575   0.576   0.574   0.556   0.508   0.492   0.510   0.506   0.501   0.472   0.494   0.484   0.505   0.465   0.522
    70.75    0.504   0.497   0.518   0.538   0.543   0.497   0.529   0.547   0.525   0.536   0.527   0.543   0.553   0.535   0.541   0.527   0.554   0.575   0.581   0.592   0.609   0.585   0.561   0.541   0.523   0.520   0.516   0.519   0.509   0.464   0.490   0.488   0.488   0.502   0.538
    66.10    0.450   0.474   0.516   0.522   0.536   0.497   0.538   0.534   0.508   0.533   0.525   0.538   0.543   0.557   0.541   0.539   0.567   0.540   0.583   0.617   0.644   0.601   0.564   0.574   0.539   0.530   0.531   0.541   0.519   0.486   0.488   0.517   0.495   0.519   0.528
    61.45    0.468   0.462   0.527   0.526   0.544   0.525   0.543   0.544   0.514   0.502   0.502   0.498   0.527   0.521   0.495   0.556   0.614   0.564   0.618   0.605   0.607   0.607   0.583   0.610   0.534   0.567   0.565   0.580   0.542   0.544   0.491   0.486   0.538   0.560   0.569
    56.80    0.499   0.504   0.515   0.525   0.549   0.521   0.536   0.543   0.548   0.519   0.495   0.511   0.542   0.551   0.519   0.536   0.569   0.578   0.601   0.582   0.570   0.553   0.565   0.595   0.543   0.542   0.529   0.569   0.553   0.518   0.514   0.546   0.575   0.535   0.546
    52.15    0.546   0.570   0.534   0.565   0.557   0.533   0.522   0.535   0.560   0.554   0.509   0.526   0.544   0.569   0.541   0.545   0.557   0.580   0.569   0.563   0.551   0.561   0.535   0.539   0.523   0.548   0.555   0.540   0.547   0.531   0.543   0.570   0.571   0.533   0.540
    47.50    0.581   0.576   0.560   0.532   0.528   0.571   0.583   0.567   0.545   0.543   0.513   0.532   0.515   0.556   0.543   0.509   0.540   0.555   0.535   0.549   0.565   0.576   0.580   0.571   0.588   0.567   0.545   0.529   0.526   0.543   0.559   0.594   0.577   0.621   0.581
    42.85    0.545   0.563   0.565   0.563   0.555   0.533   0.558   0.554   0.540   0.516   0.534   0.549   0.530   0.525   0.580   0.551   0.532   0.544   0.525   0.547   0.602   0.571   0.583   0.551   0.524   0.534   0.521   0.548   0.511   0.547   0.556   0.551   0.586   0.573   0.593
    38.20    0.537   0.549   0.545   0.574   0.562   0.550   0.559   0.507   0.547   0.569   0.561   0.550   0.515   0.554   0.587   0.581   0.547   0.575   0.532   0.578   0.601   0.607   0.553   0.556   0.507   0.539   0.565   0.541   0.539   0.593   0.563   0.590   0.571   0.581   0.600
    33.55    0.518   0.530   0.546   0.536   0.553   0.515   0.540   0.529   0.544   0.547   0.578   0.535   0.527   0.568   0.555   0.509   0.558   0.563   0.570   0.556   0.543   0.563   0.559   0.537   0.569   0.568   0.530   0.547   0.557   0.595   0.601   0.575   0.530   0.540   0.589
    28.90    0.518   0.523   0.517   0.562   0.573   0.536   0.547   0.565   0.528   0.567   0.575   0.543   0.547   0.556   0.510   0.497   0.532   0.554   0.565   0.546   0.536   0.533   0.529   0.544   0.584   0.571   0.547   0.553   0.571   0.537   0.569   0.563   0.570   0.538   0.576
    24.25    0.538   0.540   0.555   0.582   0.559   0.527   0.512   0.539   0.540   0.561   0.576   0.550   0.518   0.522   0.530   0.503   0.557   0.570   0.549   0.555   0.538   0.550   0.544   0.598   0.623   0.612   0.579   0.524   0.513   0.541   0.588   0.539   0.515   0.559   0.591
    19.60    0.541   0.562   0.543   0.557   0.572   0.543   0.523   0.519   0.529   0.559   0.576   0.577   0.578   0.546   0.542   0.572   0.544   0.541   0.553   0.517   0.521   0.533   0.544   0.620   0.640   0.613   0.560   0.516   0.500   0.532   0.546   0.576   0.555   0.527   0.551
    14.95    0.554   0.539   0.570   0.578   0.558   0.527   0.533   0.560   0.514   0.567   0.561   0.567   0.555   0.563   0.588   0.592   0.591   0.550   0.545   0.521   0.528   0.560   0.597   0.620   0.588   0.563   0.549   0.521   0.517   0.522   0.507   0.494   0.533   0.542   0.539
    10.30    0.596   0.597   0.584   0.582   0.613   0.559   0.526   0.553   0.559   0.571   0.556   0.549   0.582   0.591   0.612   0.645   0.637   0.606   0.612   0.546   0.523   0.536   0.544   0.540   0.553   0.564   0.561   0.483   0.488   0.487   0.523   0.525   0.510   0.493   0.508
     5.65    0.563   0.583   0.623   0.633   0.665   0.573   0.584   0.583   0.593   0.606   0.612   0.570   0.589   0.594   0.582   0.604   0.613   0.645   0.610   0.602   0.575   0.544   0.551   0.507   0.516   0.532   0.523   0.516   0.505   0.505   0.536   0.505   0.505   0.497   0.550
     1.00    0.543   0.576   0.609   0.608   0.632   0.600   0.571   0.576   0.601   0.636   0.612   0.600   0.589   0.593   0.616   0.641   0.638   0.679   0.665   0.583   0.549   0.520   0.539   0.524   0.501   0.518   0.499   0.525   0.516   0.560   0.587   0.557   0.522   0.501   0.517

   Height   Standard deviation at grid points for the w component:
   168.40    0.336   0.355   0.333   0.321   0.343   0.334   0.332   0.342   0.347   0.338   0.342   0.343   0.340   0.342   0.347   0.344   0.346   0.360   0.345   0.349   0.355   0.346   0.353   0.344   0.325   0.334   0.331   0.340   0.339   0.345   0.338   0.331   0.327   0.322   0.331
   163.75    0.350   0.345   0.342   0.327   0.331   0.338   0.334   0.345   0.348   0.339   0.343   0.347   0.347   0.344   0.333   0.353   0.346   0.339   0.342   0.355   0.339   0.337   0.343   0.342   0.337   0.339   0.330   0.336   0.349   0.347   0.338   0.324   0.322   0.323   0.332
   159.10    0.335   0.327   0.340   0.334   0.336   0.333   0.338   0.333   0.339   0.335   0.342   0.343   0.340   0.341   0.336   0.337   0.342   0.333   0.340   0.347   0.329   0.336   0.344   0.331   0.341   0.326   0.324   0.337   0.343   0.347   0.332   0.334   0.329   0.334   0.345
   154.45    0.333   0.339   0.333   0.325   0.334   0.327   0.320   0.323   0.326   0.338   0.336   0.344   0.341   0.338   0.329   0.338   0.340   0.329   0.341   0.334   0.328   0.328   0.343   0.343   0.336   0.344   0.345   0.350   0.347   0.341   0.339   0.339   0.338   0.342   0.333
   149.80    0.338   0.336   0.329   0.322   0.332   0.326   0.315   0.312   0.315   0.325   0.331   0.341   0.344   0.350   0.337   0.336   0.338   0.335   0.339   0.349   0.330   0.340   0.335   0.336   0.343   0.335   0.349   0.348   0.341   0.333   0.330   0.344   0.343   0.353   0.337
   145.15    0.323   0.330   0.329   0.337   0.340   0.328   0.330   0.315   0.314   0.331   0.340   0.332   0.346   0.345   0.332   0.341   0.344   0.335   0.337   0.346   0.346   0.352   0.337   0.343   0.347   0.348   0.357   0.364   0.338   0.339   0.333   0.336   0.340   0.351   0.342
   140.50    0.330   0.326   0.331   0.329   0.331   0.339   0.330   0.311   0.319   0.348   0.342   0.334   0.329   0.339   0.337   0.347   0.357   0.343   0.337   0.346   0.346   0.351   0.349   0.340   0.353   0.352   0.350   0.363   0.356   0.341   0.342   0.334   0.330   0.346   0.350
   135.85    0.324   0.327   0.329   0.335   0.332   0.342   0.336   0.327   0.341   0.346   0.339   0.340   0.333   0.336   0.328   0.343   0.343   0.349   0.345   0.353   0.342   0.343   0.357   0.353   0.350   0.347   0.346   0.346   0.352   0.350   0.351   0.346   0.340   0.347   0.357
   131.20    0.333   0.329   0.327   0.328   0.333   0.330   0.338   0.330   0.335   0.342   0.341   0.332   0.328   0.329   0.334   0.345   0.347   0.340   0.353   0.350   0.343   0.355   0.350   0.353   0.353   0.342   0.345   0.343   0.346   0.349   0.347   0.354   0.349   0.347   0.357
   126.55    0.328   0.332   0.322   0.327   0.339   0.336   0.337   0.333   0.327   0.339   0.342   0.337   0.342   0.339   0.331   0.332   0.346   0.346   0.351   0.346   0.343   0.347   0.349   0.348   0.345   0.345   0.352   0.348   0.334   0.343   0.350   0.348   0.333   0.345   0.349
   121.90    0.329   0.323   0.324   0.323   0.329   0.319   0.329   0.336   0.329   0.333   0.338   0.338   0.335   0.335   0.345   0.347   0.352   0.356   0.345   0.349   0.334   0.345   0.341   0.342   0.349   0.351   0.342   0.351   0.342   0.339   0.353   0.344   0.347   0.329   0.344
   117.25    0.325   0.324   0.328   0.328   0.320   0.324   0.340   0.335   0.338   0.345   0.346   0.352   0.345   0.341   0.342   0.353   0.356   0.347   0.336   0.352   0.349   0.343   0.340   0.348   0.355   0.349   0.346   0.341   0.344   0.337   0.344   0.345   0.339   0.344   0.355
   112.60    0.326   0.332   0.328   0.331   0.328   0.336   0.349   0.343   0.340   0.357   0.356   0.349   0.341   0.343   0.358   0.348   0.347   0.336   0.333   0.338   0.345   0.338   0.342   0.347   0.346   0.340   0.332   0.333   0.332   0.339   0.341   0.347   0.342   0.348   0.364
   107.95    0.330   0.330   0.327   0.329   0.321   0.336   0.333   0.341   0.350   0.362   0.360   0.347   0.345   0.343   0.353   0.343   0.341   0.340   0.340   0.355   0.346   0.350   0.344   0.348   0.368   0.341   0.338   0.342   0.343   0.341   0.351   0.341   0.340   0.343   0.341
   103.30    0.326   0.326   0.342   0.330   0.333   0.333   0.330   0.334   0.343   0.354   0.358   0.349   0.342   0.333   0.346   0.340   0.344   0.350   0.349   0.347   0.335   0.357   0.360   0.342   0.352   0.355   0.340   0.348   0.351   0.344   0.345   0.351   0.353   0.346   0.345
    98.65    0.337   0.310   0.328   0.339   0.323   0.321   0.333   0.340   0.350   0.367   0.350   0.334   0.342   0.342   0.353   0.344   0.338   0.346   0.341   0.334   0.349   0.353   0.351   0.359   0.327   0.347   0.354   0.355   0.336   0.337   0.330   0.337   0.339   0.347   0.341
    94.00    0.336   0.335   0.332   0.334   0.330   0.333   0.339   0.351   0.358   0.358   0.349   0.349   0.348   0.357   0.355   0.349   0.352   0.348   0.336   0.339   0.339   0.354   0.341   0.343   0.332   0.346   0.347   0.352   0.341   0.341   0.344   0.353   0.347   0.344   0.339
    89.35    0.340   0.325   0.330   0.325   0.328   0.320   0.327   0.334   0.338   0.346   0.336   0.330   0.345   0.352   0.355   0.355   0.346   0.339   0.342   0.351   0.342   0.355   0.347   0.333   0.335   0.334   0.332   0.339   0.348   0.345   0.353   0.365   0.360   0.355   0.361
    84.70    0.337   0.346   0.350   0.331   0.329   0.324   0.325   0.325   0.319   0.345   0.337   0.336   0.345   0.355   0.360   0.353   0.347   0.367   0.358   0.363   0.341   0.347   0.339   0.352   0.345   0.347   0.329   0.344   0.347   0.356   0.362   0.362   0.366   0.355   0.357
    80.05    0.339   0.345   0.343   0.342   0.333   0.337   0.339   0.333   0.319   0.329   0.324   0.337   0.354   0.355   0.351   0.350   0.352   0.354   0.355   0.364   0.363   0.339   0.328   0.334   0.334   0.324   0.324   0.337   0.357   0.349   0.349   0.367   0.371   0.370   0.362
    75.40    0.337   0.337   0.343   0.335   0.336   0.336   0.330   0.331   0.320   0.320   0.319   0.339   0.347   0.345   0.355   0.358   0.342   0.344   0.347   0.366   0.357   0.349   0.347   0.355   0.339   0.317   0.327   0.343   0.344   0.349   0.354   0.353   0.360   0.355   0.361
    70.75    0.351   0.346   0.343   0.334   0.327   0.334   0.337   0.333   0.326   0.328   0.335   0.342   0.351   0.353   0.346   0.343   0.334   0.344   0.350   0.348   0.345   0.344   0.360   0.340   0.338   0.319   0.326   0.329   0.352   0.346   0.347   0.350   0.353   0.355   0.359
    66.10    0.337   0.333   0.325   0.323   0.337   0.342   0.338   0.322   0.328   0.331   0.350   0.352   0.358   0.356   0.353   0.337   0.341   0.341   0.352   0.336   0.335   0.350   0.356   0.347   0.332   0.332   0.341   0.343   0.349   0.349   0.343   0.342   0.356   0.361   0.355
    61.45    0.330   0.323   0.325   0.320   0.332   0.345   0.327   0.328   0.325   0.342   0.345   0.359   0.360   0.362   0.350   0.340   0.339   0.350   0.349   0.339   0.341   0.335   0.350   0.350   0.330   0.332   0.341   0.334   0.348   0.349   0.346   0.349   0.350   0.360   0.351
    56.80    0.319   0.329   0.333   0.326   0.337   0.334   0.321   0.329   0.328   0.340   0.356   0.360   0.350   0.364   0.354   0.348   0.335   0.332   0.351   0.341   0.344   0.351   0.357   0.351   0.342   0.330   0.348   0.355   0.360   0.345   0.349   0.350   0.346   0.359   0.344
    52.15    0.316   0.331   0.329   0.313   0.313   0.325   0.324   0.321   0.333   0.344   0.344   0.351   0.353   0.353   0.349   0.355   0.335   0.345   0.343   0.350   0.365   0.362   0.353   0.345   0.339   0.339   0.345   0.346   0.345   0.353   0.344   0.355   0.351   0.341   0.349
    47.50    0.340   0.342   0.327   0.322   0.320   0.305   0.324   0.327   0.335   0.344   0.350   0.359   0.366   0.355   0.356   0.338   0.344   0.337   0.341   0.358   0.352   0.357   0.347   0.346   0.337   0.336   0.340   0.337   0.341   0.331   0.337   0.345   0.340   0.348   0.351
    42.85    0.338   0.340   0.323   0.332   0.323   0.330   0.320   0.326   0.329   0.335   0.341   0.347   0.359   0.339   0.340   0.343   0.340   0.327   0.333   0.349   0.345   0.350   0.349   0.355   0.333   0.343   0.344   0.344   0.335   0.341   0.338   0.333   0.336   0.344   0.344
    38.20    0.337   0.341   0.348   0.332   0.335   0.341   0.325   0.324   0.327   0.337   0.348   0.351   0.344   0.342   0.342   0.350   0.347   0.331   0.329   0.343   0.342   0.344   0.355   0.353   0.343   0.340   0.342   0.349   0.347   0.330   0.339   0.339   0.328   0.342   0.341
    33.55    0.346   0.334   0.349   0.335   0.350   0.335   0.327   0.329   0.324   0.331   0.345   0.346   0.335   0.344   0.344   0.353   0.343   0.335   0.338   0.352   0.345   0.350   0.359   0.344   0.345   0.344   0.339   0.345   0.351   0.341   0.354   0.340   0.345   0.342   0.327
    28.90    0.342   0.341   0.352   0.343   0.353   0.343   0.345   0.334   0.328   0.334   0.347   0.342   0.341   0.352   0.351   0.355   0.342   0.347   0.349   0.347   0.340   0.348   0.352   0.348   0.341   0.345   0.345   0.339   0.339   0.333   0.340   0.344   0.343   0.340   0.320
    24.25    0.336   0.337   0.346   0.359   0.365   0.344   0.332   0.337   0.335   0.345   0.345   0.337   0.347   0.350   0.344   0.360   0.357   0.350   0.350   0.346   0.340   0.346   0.347   0.349   0.360   0.347   0.333   0.331   0.337   0.334   0.343   0.355   0.346   0.334   0.333
    19.60    0.339   0.360   0.365   0.357   0.347   0.343   0.337   0.327   0.337   0.345   0.353   0.344   0.345   0.351   0.357   0.363   0.344   0.338   0.333   0.341   0.340   0.347   0.334   0.350   0.343   0.349   0.346   0.341   0.335   0.346   0.340   0.341   0.337   0.324   0.317
    14.95    0.336   0.347   0.368   0.360   0.352   0.356   0.332   0.339   0.352   0.341   0.358   0.333   0.360   0.356   0.361   0.345   0.330   0.321   0.332   0.331   0.349   0.352   0.342   0.338   0.333   0.348   0.349   0.344   0.340   0.348   0.334   0.338   0.338   0.329   0.322
    10.30    0.338   0.337   0.361   0.355   0.354   0.349   0.340   0.325   0.342   0.346   0.339   0.340   0.361   0.348   0.355   0.336   0.330   0.324   0.325   0.324   0.340   0.342   0.336   0.345   0.330   0.338   0.338   0.323   0.323   0.332   0.330   0.334   0.333   0.338   0.342
     5.65    0.332   0.340   0.349   0.351   0.343   0.345   0.340   0.334   0.334   0.340   0.333   0.340   0.349   0.349   0.347   0.348   0.350   0.330   0.328   0.326   0.333   0.339   0.339   0.341   0.335   0.338   0.328   0.323   0.328   0.332   0.325   0.323   0.337   0.351   0.347
     1.00    0.342   0.338   0.338   0.348   0.350   0.341   0.323   0.346   0.333   0.335   0.332   0.341   0.352   0.341   0.346   0.340   0.343   0.341   0.341   0.339   0.325   0.328   0.344   0.345   0.331   0.336   0.323   0.325   0.320   0.332   0.329   0.328   0.338   0.352   0.342

   Mean standard deviation across all grid points:
      u component:    0.882 m/s
      v component:    0.570 m/s
      w component:    0.341 m/s


U-component (X) statistics from the interpolated hub point:

   Mean =   9.9913 m/s
   TI   =   7.7925 %


Processing complete.  5925.1 CPU seconds used.
