
This summary file was generated by TurbSim (from OpenFAST-v3.5.3) on 20-Apr-2025 at 00:52:54.


Runtime Options:

**********  Random seed #1
    RANLUX  Type of random number generator
         F  Output binary HH turbulence parameters?
         F  Output formatted turbulence parameters?
         F  Output AeroDyn HH files?
         T  Output AeroDyn FF files?
         F  Output BLADED FF files?
         F  Output tower data?
         F  Output HAWC FF files?
         F  Output formatted FF files?
         T  Output coherent turbulence time step file?
 0 -  NONE  IEC turbulence models scaled to exact specified standard deviation


Turbine/Model Specifications:

        39  Vertical grid-point matrix dimension
       193  Horizontal grid-point matrix dimension
     0.250  Time step [seconds]
   900.000  Analysis time [seconds]
   900.000  Usable output time [seconds]
   177.700  Hub height [m]
   353.400  Grid height [m]
  1785.600  Grid width [m]
     0.000  Vertical flow angle [degrees]
     0.000  Horizontal flow angle [degrees]


Meteorological Boundary Conditions:

    IECKAI  IEC Kaimal spectral model
         1  IEC standard: IEC 61400-1 Ed. 3: 2005
     5.000  Percent turbulence intensity, IEC 61400-1 Ed. 3: 2005
       NTM  IEC Normal Turbulence Model
       N/A  IEC Extreme Turbulence Model (ETM) "c" parameter [m/s]
       USR  Wind profile type
    90.000  Reference height [m]
       N/A  Reference wind speed [m/s]
       N/A  Jet height [m]
       N/A  Power law exponent
     0.030  Surface roughness length [m]


Non-IEC Meteorological Boundary Conditions:

       N/A  Site latitude [degrees]
       N/A  Gradient Richardson number
       N/A  Friction or shear velocity [m/s]
       N/A  Mixing layer depth [m]
       N/A  Mean hub u'w' Reynolds stress
       N/A  Mean hub u'v' Reynolds stress
       N/A  Mean hub v'w' Reynolds stress


Spatial Coherence Models:

       IEC  u-component coherence model
       IEC  v-component coherence model
       IEC  w-component coherence model
(   12.000, 0.353E-03)  u-component coherence parameters
(   12.000, 0.353E-03)  v-component coherence parameters
(   12.000, 0.353E-03)  w-component coherence parameters
       N/A  Coherence exponent


User-Defined Profiles:

  Height   Wind Speed   Horizontal Angle
   (m)        (m/s)          (deg)      
  ------   ----------   ----------------
  353.40      10.00         318.19
  334.80      10.00         321.14
  316.20      10.00         324.10
  297.60      10.00         327.05
  279.00      10.00         330.00
  260.40      10.00         332.95
  241.80      10.00         335.90
  223.20      10.00         338.86
  204.60      10.00         341.81
  186.00      10.00         344.76
  167.40      10.00         347.71
  148.80      10.00         350.67
  130.20      10.00         353.62
  111.60      10.00         356.57
   93.00      10.00         359.52
   74.40      10.00           2.48
   55.80      10.00           5.43
   37.20      10.00           8.38
   18.60      10.00          11.33
    0.00      10.00          14.29


You have requested that the following file(s) be generated:

   /kfs3/scratch/agupta/Projects/RL_Incubator/FinalRuns_Veer/Seed4/./FFSim_Seed4/Cond00_v10.0_PL0.12_TI5.0/Seed_9/Low.bts (AeroDyn/TurbSim full-field wind file)


Turbulence Simulation Scaling Parameter Summary:

   Turbulence model used                            =  IEC Kaimal
   Turbulence characteristic                        =  User-specified
   IEC standard                                     =  IEC 61400-1 Ed. 3: 2005
   Mean wind speed at hub height                    =   10.000 m/s
   Characteristic value of standard deviation       =    0.500 m/s
   Turbulence scale                                 =   42.000 m
   u-component integral scale                       =  340.200 m
   Coherency scale                                  =  340.200 m
   Characteristic value of hub turbulence intensity =    5.000%
   Gradient Richardson number                       =    0.000

   Wind profile type                                =  Linear interpolation of user-defined profile
   Equivalent power law exponent (upper rotor disk) =    0.000
   Mean shear across rotor disk                     =    0.000 (m/s)/m
   Assumed rotor diameter                           =  353.400 m
   Surface roughness length                         =    0.030 m

   Nyquist frequency of turbulent wind field        =    2.000 Hz

   Number of time steps in the FFT                  =     3600
   Number of time steps output                      =     3600
   Number of points simulated                       =     7527


Mean Flow Angles:

   Vertical   =   0.0 degrees
   Horizontal =   0.0 degrees

Mean Wind Speed Profile:

   Height    Wind Speed   Horizontal Angle  Vertical Angle  U-comp (X)   V-comp (Y)   W-comp (Z)
     (m)        (m/s)         (degrees)       (degrees)       (m/s)        (m/s)        (m/s)   
   ------    ----------   ----------------  --------------  ----------   ----------   ----------
    354.4       10.00          318.19            0.00          7.45        -6.67         0.00
    345.1       10.00          319.51            0.00          7.60        -6.49         0.00
    335.8       10.00          320.98            0.00          7.77        -6.30         0.00
    326.5       10.00          322.46            0.00          7.93        -6.09         0.00
    317.2       10.00          323.94            0.00          8.08        -5.89         0.00
    307.9       10.00          325.41            0.00          8.23        -5.68         0.00
    298.6       10.00          326.89            0.00          8.38        -5.46         0.00
    289.3       10.00          328.37            0.00          8.51        -5.25         0.00
    280.0       10.00          329.84            0.00          8.65        -5.02         0.00
    270.7       10.00          331.32            0.00          8.77        -4.80         0.00
    261.4       10.00          332.79            0.00          8.89        -4.57         0.00
    252.1       10.00          334.27            0.00          9.01        -4.34         0.00
    242.8       10.00          335.75            0.00          9.12        -4.11         0.00
    233.5       10.00          337.22            0.00          9.22        -3.87         0.00
    224.2       10.00          338.70            0.00          9.32        -3.63         0.00
    214.9       10.00          340.17            0.00          9.41        -3.39         0.00
    205.6       10.00          341.65            0.00          9.49        -3.15         0.00
    196.3       10.00          343.13            0.00          9.57        -2.90         0.00
    187.0       10.00          344.60            0.00          9.64        -2.66         0.00
    177.7       10.00          346.08            0.00          9.71        -2.41         0.00
    168.4       10.00          347.56            0.00          9.77        -2.15         0.00
    159.1       10.00          349.03            0.00          9.82        -1.90         0.00
    149.8       10.00          350.51            0.00          9.86        -1.65         0.00
    140.5       10.00          351.98            0.00          9.90        -1.39         0.00
    131.2       10.00          353.46            0.00          9.93        -1.14         0.00
    121.9       10.00          354.94            0.00          9.96        -0.88         0.00
    112.6       10.00          356.41            0.00          9.98        -0.63         0.00
    103.3       10.00          357.89            0.00          9.99        -0.37         0.00
     94.0       10.00          359.37            0.00         10.00        -0.11         0.00
     84.7       10.00          360.84            0.00         10.00         0.15         0.00
     75.4       10.00          362.32            0.00          9.99         0.40         0.00
     66.1       10.00            3.79            0.00          9.98         0.66         0.00
     56.8       10.00            5.27            0.00          9.96         0.92         0.00
     47.5       10.00            6.75            0.00          9.93         1.17         0.00
     38.2       10.00            8.22            0.00          9.90         1.43         0.00
     28.9       10.00            9.70            0.00          9.86         1.68         0.00
     19.6       10.00           11.17            0.00          9.81         1.94         0.00
     10.3       10.00           12.65            0.00          9.76         2.19         0.00
      1.0       10.00           14.13            0.00          9.70         2.44         0.00


Harvested Random Seeds after Generation of the Random Numbers:

    377667225 K 1
            0 K 2


Hub-Height Simulated Turbulence Statistical Summary:

   Type of Wind        Min (m/s)   Mean (m/s)    Max (m/s)  Sigma (m/s)       TI (%)
   ----------------    ---------   ----------    ---------  -----------       ------
   Longitudinal (u)         8.80        10.00        11.30        0.412        4.125
   Lateral (v)             -1.13         0.00         1.29        0.383        3.830
   Vertical (w)            -0.77        -0.00         0.79        0.228        2.284
   U component              8.53         9.71        11.14        0.413        4.260
   V component             -3.50        -2.41        -0.96        0.382        3.935
   W component             -0.77        -0.00         0.79        0.228        2.353
   Horizontal (U&V)         8.80        10.01        11.33        0.412        4.113
   Total                    8.80        10.01        11.33        0.412        4.112

                       Min Reynolds     Mean Reynolds    Max Reynolds    Correlation
   Product             Stress (m/s)^2   Stress (m/s)^2   Stress (m/s)^2  Coefficient
   ----------------    --------------   --------------   --------------  -----------
   u'w'                     -0.686            -0.005             0.441        -0.058
   u'v'                     -1.067             0.005             0.946         0.030
   v'w'                     -0.500             0.006             0.746         0.065


   Friction Velocity (Ustar)  =      0.074 m/s
   Maximum Instantaneous TKE  =      1.161 (m/s)^2
   Maximum Instantaneous CTKE =      0.651 (m/s)^2


Grid Point Variance Summary:

   Y-coord -892.80 -883.50 -874.20 -864.90 -855.60 -846.30 -837.00 -827.70 -818.40 -809.10 -799.80 -790.50 -781.20 -771.90 -762.60 -753.30 -744.00 -734.70 -725.40 -716.10 -706.80 -697.50 -688.20 -678.90 -669.60 -660.30 -651.00 -641.70 -632.40 -623.10 -613.80 -604.50 -595.20 -585.90 -576.60 -567.30 -558.00 -548.70 -539.40 -530.10 -520.80 -511.50 -502.20 -492.90 -483.60 -474.30 -465.00 -455.70 -446.40 -437.10 -427.80 -418.50 -409.20 -399.90 -390.60 -381.30 -372.00 -362.70 -353.40 -344.10 -334.80 -325.50 -316.20 -306.90 -297.60 -288.30 -279.00 -269.70 -260.40 -251.10 -241.80 -232.50 -223.20 -213.90 -204.60 -195.30 -186.00 -176.70 -167.40 -158.10 -148.80 -139.50 -130.20 -120.90 -111.60 -102.30  -93.00  -83.70  -74.40  -65.10  -55.80  -46.50  -37.20  -27.90  -18.60   -9.30    0.00    9.30   18.60   27.90   37.20   46.50   55.80   65.10   74.40   83.70   93.00  102.30  111.60  120.90  130.20  139.50  148.80  158.10  167.40  176.70  186.00  195.30  204.60  213.90  223.20  232.50  241.80  251.10  260.40  269.70  279.00  288.30  297.60  306.90  316.20  325.50  334.80  344.10  353.40  362.70  372.00  381.30  390.60  399.90  409.20  418.50  427.80  437.10  446.40  455.70  465.00  474.30  483.60  492.90  502.20  511.50  520.80  530.10  539.40  548.70  558.00  567.30  576.60  585.90  595.20  604.50  613.80  623.10  632.40  641.70  651.00  660.30  669.60  678.90  688.20  697.50  706.80  716.10  725.40  734.70  744.00  753.30  762.60  771.90  781.20  790.50  799.80  809.10  818.40  827.70  837.00  846.30  855.60  864.90  874.20  883.50  892.80

   Height   Standard deviation at grid points for the u component:
   354.40    0.494   0.498   0.514   0.510   0.516   0.539   0.527   0.516   0.520   0.505   0.500   0.481   0.513   0.536   0.495   0.504   0.471   0.441   0.458   0.439   0.408   0.447   0.458   0.460   0.465   0.471   0.454   0.411   0.433   0.443   0.469   0.424   0.433   0.439   0.448   0.442   0.432   0.452   0.436   0.452   0.448   0.440   0.448   0.417   0.386   0.434   0.448   0.454   0.427   0.439   0.437   0.496   0.506   0.538   0.524   0.508   0.493   0.509   0.544   0.465   0.448   0.461   0.466   0.458   0.427   0.414   0.430   0.414   0.416   0.437   0.417   0.393   0.375   0.397   0.430   0.434   0.421   0.467   0.465   0.473   0.451   0.451   0.415   0.399   0.431   0.433   0.436   0.425   0.412   0.398   0.431   0.423   0.439   0.383   0.390   0.401   0.394   0.389   0.394   0.401   0.417   0.437   0.435   0.450   0.438   0.449   0.477   0.498   0.513   0.526   0.511   0.515   0.481   0.465   0.480   0.487   0.500   0.520   0.519   0.532   0.536   0.477   0.495   0.460   0.451   0.444   0.452   0.415   0.431   0.465   0.482   0.453   0.460   0.470   0.453   0.461   0.466   0.446   0.418   0.421   0.442   0.451   0.437   0.443   0.400   0.404   0.402   0.412   0.392   0.430   0.432   0.477   0.511   0.486   0.495   0.483   0.480   0.481   0.481   0.438   0.442   0.441   0.458   0.431   0.441   0.428   0.463   0.492   0.469   0.440   0.455   0.448   0.487   0.481   0.456   0.435   0.432   0.418   0.390   0.390   0.433   0.485   0.524   0.523   0.510   0.523   0.529   0.535   0.532   0.487   0.474   0.478   0.441
   345.10    0.507   0.484   0.495   0.526   0.517   0.532   0.518   0.529   0.512   0.519   0.487   0.485   0.490   0.508   0.529   0.506   0.468   0.437   0.452   0.432   0.443   0.443   0.462   0.474   0.467   0.485   0.446   0.417   0.447   0.466   0.439   0.453   0.438   0.444   0.454   0.444   0.427   0.410   0.411   0.448   0.442   0.456   0.425   0.423   0.409   0.411   0.441   0.448   0.436   0.442   0.434   0.460   0.481   0.514   0.552   0.525   0.517   0.491   0.514   0.486   0.490   0.491   0.453   0.453   0.452   0.443   0.437   0.407   0.431   0.421   0.407   0.421   0.414   0.410   0.424   0.429   0.446   0.455   0.458   0.427   0.439   0.428   0.424   0.409   0.402   0.410   0.410   0.412   0.428   0.423   0.454   0.441   0.430   0.399   0.393   0.426   0.397   0.404   0.395   0.400   0.402   0.415   0.442   0.473   0.461   0.460   0.480   0.478   0.489   0.471   0.490   0.471   0.471   0.472   0.471   0.485   0.476   0.476   0.484   0.502   0.504   0.503   0.493   0.494   0.460   0.484   0.447   0.417   0.428   0.443   0.465   0.434   0.443   0.435   0.432   0.457   0.441   0.456   0.435   0.418   0.440   0.413   0.401   0.433   0.435   0.419   0.413   0.377   0.388   0.438   0.418   0.476   0.481   0.471   0.477   0.518   0.536   0.500   0.500   0.471   0.458   0.445   0.468   0.433   0.424   0.416   0.440   0.426   0.407   0.395   0.425   0.428   0.446   0.451   0.463   0.438   0.440   0.414   0.415   0.407   0.461   0.503   0.507   0.509   0.489   0.528   0.545   0.545   0.513   0.472   0.423   0.457   0.419
   335.80    0.492   0.508   0.511   0.541   0.536   0.539   0.514   0.501   0.499   0.523   0.493   0.496   0.491   0.500   0.504   0.508   0.484   0.482   0.435   0.432   0.442   0.431   0.453   0.447   0.469   0.470   0.474   0.456   0.463   0.462   0.435   0.467   0.453   0.466   0.447   0.425   0.416   0.440   0.444   0.445   0.451   0.441   0.397   0.404   0.400   0.426   0.427   0.447   0.418   0.420   0.450   0.473   0.470   0.497   0.504   0.515   0.520   0.482   0.478   0.469   0.502   0.521   0.506   0.478   0.467   0.435   0.436   0.439   0.438   0.444   0.410   0.426   0.426   0.432   0.431   0.431   0.432   0.452   0.437   0.451   0.405   0.411   0.415   0.394   0.400   0.411   0.370   0.410   0.428   0.414   0.419   0.444   0.418   0.416   0.415   0.410   0.423   0.417   0.403   0.406   0.401   0.416   0.431   0.448   0.447   0.452   0.473   0.459   0.453   0.438   0.457   0.483   0.455   0.448   0.483   0.488   0.496   0.520   0.496   0.482   0.508   0.507   0.488   0.477   0.472   0.451   0.459   0.430   0.434   0.444   0.452   0.439   0.455   0.431   0.436   0.446   0.448   0.476   0.425   0.431   0.415   0.407   0.391   0.390   0.395   0.399   0.406   0.402   0.407   0.417   0.459   0.485   0.477   0.473   0.498   0.501   0.517   0.484   0.478   0.456   0.474   0.482   0.465   0.458   0.457   0.451   0.440   0.439   0.458   0.440   0.443   0.439   0.463   0.496   0.478   0.441   0.471   0.478   0.478   0.481   0.474   0.506   0.513   0.498   0.504   0.503   0.516   0.538   0.538   0.470   0.474   0.482   0.450
   326.50    0.529   0.524   0.547   0.545   0.546   0.478   0.508   0.512   0.509   0.496   0.499   0.468   0.483   0.474   0.490   0.471   0.510   0.512   0.501   0.465   0.446   0.461   0.489   0.500   0.473   0.475   0.479   0.465   0.477   0.472   0.452   0.467   0.493   0.457   0.435   0.425   0.420   0.420   0.447   0.472   0.441   0.411   0.406   0.410   0.439   0.467   0.478   0.488   0.482   0.486   0.485   0.478   0.502   0.490   0.492   0.489   0.517   0.487   0.492   0.485   0.519   0.543   0.510   0.498   0.513   0.503   0.461   0.449   0.482   0.458   0.448   0.442   0.425   0.426   0.417   0.410   0.398   0.430   0.438   0.415   0.426   0.399   0.371   0.379   0.381   0.392   0.380   0.395   0.384   0.397   0.419   0.420   0.400   0.410   0.420   0.416   0.401   0.397   0.390   0.381   0.427   0.426   0.413   0.406   0.425   0.440   0.478   0.479   0.457   0.470   0.460   0.467   0.467   0.466   0.458   0.485   0.509   0.491   0.477   0.495   0.503   0.521   0.515   0.484   0.460   0.451   0.463   0.451   0.450   0.445   0.449   0.422   0.447   0.449   0.461   0.449   0.435   0.455   0.446   0.412   0.406   0.397   0.426   0.400   0.364   0.376   0.384   0.393   0.422   0.447   0.454   0.487   0.466   0.473   0.474   0.506   0.501   0.492   0.511   0.474   0.461   0.478   0.505   0.462   0.488   0.474   0.461   0.469   0.487   0.446   0.441   0.460   0.458   0.505   0.508   0.485   0.505   0.492   0.537   0.524   0.490   0.501   0.498   0.503   0.495   0.489   0.505   0.509   0.533   0.501   0.523   0.508   0.464
   317.20    0.498   0.506   0.490   0.503   0.526   0.496   0.493   0.505   0.525   0.481   0.463   0.480   0.473   0.461   0.448   0.464   0.477   0.503   0.479   0.455   0.460   0.467   0.509   0.500   0.515   0.511   0.538   0.503   0.486   0.465   0.468   0.500   0.494   0.465   0.459   0.421   0.408   0.409   0.443   0.432   0.435   0.415   0.417   0.411   0.439   0.476   0.490   0.518   0.485   0.475   0.475   0.453   0.478   0.495   0.516   0.501   0.506   0.523   0.524   0.493   0.534   0.559   0.550   0.515   0.478   0.498   0.518   0.507   0.487   0.442   0.444   0.433   0.403   0.404   0.397   0.401   0.384   0.424   0.439   0.425   0.402   0.385   0.403   0.373   0.368   0.394   0.387   0.397   0.377   0.399   0.411   0.418   0.431   0.430   0.422   0.430   0.434   0.412   0.428   0.432   0.410   0.443   0.435   0.436   0.425   0.444   0.483   0.485   0.477   0.464   0.462   0.489   0.487   0.489   0.505   0.469   0.506   0.510   0.501   0.474   0.486   0.508   0.475   0.489   0.436   0.448   0.433   0.428   0.456   0.461   0.449   0.436   0.423   0.439   0.442   0.473   0.466   0.432   0.442   0.410   0.402   0.395   0.406   0.400   0.377   0.389   0.391   0.397   0.430   0.470   0.454   0.472   0.472   0.483   0.476   0.494   0.521   0.510   0.514   0.491   0.479   0.523   0.511   0.481   0.464   0.446   0.430   0.446   0.463   0.462   0.429   0.474   0.460   0.492   0.492   0.514   0.499   0.515   0.523   0.513   0.471   0.510   0.487   0.513   0.516   0.490   0.497   0.502   0.555   0.542   0.542   0.547   0.504
   307.90    0.524   0.495   0.488   0.487   0.482   0.472   0.489   0.505   0.516   0.499   0.460   0.451   0.465   0.433   0.440   0.447   0.471   0.496   0.501   0.496   0.456   0.447   0.483   0.486   0.473   0.493   0.517   0.516   0.475   0.460   0.462   0.478   0.494   0.478   0.489   0.463   0.414   0.410   0.437   0.393   0.410   0.412   0.434   0.428   0.472   0.461   0.487   0.503   0.502   0.479   0.474   0.452   0.459   0.473   0.514   0.505   0.502   0.513   0.469   0.487   0.485   0.512   0.522   0.487   0.471   0.506   0.527   0.558   0.503   0.475   0.464   0.419   0.427   0.384   0.381   0.428   0.425   0.421   0.424   0.411   0.388   0.371   0.381   0.372   0.405   0.403   0.396   0.414   0.396   0.409   0.402   0.416   0.416   0.396   0.415   0.425   0.419   0.415   0.449   0.426   0.423   0.398   0.446   0.437   0.455   0.467   0.462   0.484   0.474   0.491   0.494   0.504   0.532   0.496   0.489   0.474   0.499   0.508   0.501   0.458   0.469   0.485   0.463   0.467   0.455   0.434   0.459   0.422   0.436   0.462   0.448   0.434   0.429   0.461   0.478   0.493   0.480   0.419   0.427   0.426   0.419   0.437   0.428   0.421   0.405   0.388   0.388   0.412   0.434   0.465   0.432   0.453   0.481   0.467   0.478   0.518   0.552   0.528   0.522   0.532   0.520   0.506   0.511   0.504   0.459   0.461   0.470   0.463   0.429   0.438   0.448   0.476   0.473   0.499   0.455   0.495   0.466   0.476   0.496   0.517   0.495   0.489   0.504   0.521   0.541   0.502   0.502   0.486   0.505   0.543   0.549   0.508   0.471
   298.60    0.455   0.475   0.488   0.462   0.482   0.476   0.462   0.459   0.491   0.500   0.467   0.444   0.460   0.478   0.460   0.470   0.468   0.495   0.525   0.515   0.487   0.477   0.460   0.469   0.483   0.527   0.521   0.506   0.489   0.474   0.478   0.519   0.534   0.532   0.530   0.465   0.432   0.405   0.429   0.404   0.453   0.420   0.426   0.431   0.467   0.415   0.448   0.479   0.482   0.448   0.445   0.440   0.471   0.463   0.471   0.504   0.494   0.504   0.483   0.488   0.467   0.482   0.502   0.489   0.472   0.498   0.530   0.519   0.496   0.494   0.478   0.456   0.447   0.420   0.419   0.418   0.425   0.399   0.405   0.420   0.398   0.388   0.405   0.416   0.418   0.388   0.412   0.392   0.419   0.423   0.391   0.405   0.397   0.405   0.409   0.416   0.403   0.402   0.432   0.437   0.439   0.417   0.438   0.440   0.435   0.459   0.466   0.493   0.467   0.483   0.460   0.459   0.475   0.511   0.498   0.489   0.516   0.512   0.499   0.483   0.456   0.453   0.430   0.440   0.452   0.441   0.453   0.432   0.449   0.449   0.458   0.460   0.470   0.478   0.489   0.488   0.486   0.474   0.468   0.476   0.481   0.472   0.460   0.449   0.406   0.414   0.416   0.449   0.465   0.454   0.468   0.468   0.504   0.501   0.484   0.521   0.541   0.573   0.593   0.549   0.548   0.531   0.547   0.530   0.493   0.434   0.454   0.472   0.471   0.461   0.498   0.472   0.466   0.460   0.462   0.467   0.465   0.480   0.502   0.491   0.522   0.500   0.516   0.543   0.505   0.478   0.507   0.494   0.512   0.527   0.543   0.486   0.490
   289.30    0.450   0.449   0.465   0.455   0.460   0.461   0.446   0.466   0.499   0.484   0.476   0.473   0.480   0.465   0.481   0.498   0.490   0.495   0.517   0.496   0.483   0.465   0.436   0.477   0.490   0.502   0.491   0.486   0.491   0.484   0.482   0.498   0.539   0.531   0.516   0.495   0.446   0.403   0.410   0.423   0.422   0.452   0.431   0.431   0.430   0.437   0.462   0.462   0.469   0.465   0.461   0.455   0.460   0.448   0.457   0.480   0.470   0.473   0.481   0.494   0.485   0.474   0.464   0.460   0.475   0.484   0.502   0.504   0.512   0.482   0.471   0.444   0.441   0.410   0.422   0.418   0.423   0.403   0.371   0.399   0.387   0.417   0.413   0.418   0.435   0.401   0.403   0.408   0.417   0.420   0.379   0.366   0.388   0.405   0.410   0.420   0.389   0.385   0.430   0.455   0.432   0.435   0.421   0.416   0.439   0.462   0.470   0.449   0.487   0.491   0.475   0.487   0.452   0.492   0.510   0.488   0.492   0.463   0.484   0.480   0.437   0.441   0.439   0.437   0.464   0.453   0.443   0.422   0.421   0.440   0.442   0.473   0.461   0.475   0.478   0.480   0.462   0.503   0.463   0.477   0.510   0.498   0.498   0.472   0.420   0.409   0.442   0.431   0.457   0.470   0.472   0.456   0.487   0.497   0.512   0.539   0.535   0.579   0.606   0.567   0.557   0.512   0.548   0.504   0.495   0.475   0.454   0.497   0.459   0.494   0.512   0.472   0.431   0.444   0.476   0.468   0.475   0.490   0.507   0.531   0.517   0.498   0.542   0.546   0.515   0.464   0.486   0.525   0.506   0.497   0.527   0.481   0.485
   280.00    0.449   0.435   0.433   0.416   0.427   0.453   0.469   0.511   0.503   0.486   0.476   0.492   0.484   0.485   0.482   0.518   0.508   0.521   0.490   0.533   0.514   0.506   0.463   0.450   0.505   0.509   0.504   0.499   0.485   0.483   0.467   0.483   0.496   0.512   0.495   0.501   0.479   0.442   0.395   0.418   0.439   0.439   0.456   0.425   0.451   0.457   0.455   0.479   0.461   0.472   0.473   0.468   0.454   0.485   0.457   0.454   0.459   0.473   0.465   0.462   0.474   0.470   0.477   0.469   0.475   0.473   0.501   0.485   0.509   0.477   0.462   0.436   0.440   0.447   0.428   0.400   0.398   0.408   0.366   0.399   0.393   0.412   0.422   0.417   0.422   0.425   0.421   0.381   0.391   0.383   0.403   0.386   0.391   0.394   0.418   0.409   0.396   0.410   0.416   0.428   0.413   0.423   0.427   0.430   0.476   0.464   0.481   0.458   0.499   0.529   0.500   0.483   0.477   0.506   0.505   0.494   0.489   0.442   0.473   0.459   0.429   0.416   0.414   0.398   0.423   0.458   0.434   0.420   0.419   0.436   0.449   0.439   0.449   0.484   0.477   0.508   0.500   0.487   0.455   0.475   0.489   0.521   0.483   0.462   0.450   0.411   0.453   0.446   0.460   0.485   0.493   0.492   0.507   0.493   0.511   0.514   0.553   0.580   0.593   0.564   0.525   0.510   0.526   0.515   0.536   0.478   0.482   0.490   0.474   0.453   0.463   0.488   0.444   0.441   0.482   0.500   0.474   0.476   0.492   0.502   0.499   0.499   0.532   0.516   0.531   0.477   0.506   0.529   0.534   0.535   0.507   0.506   0.502
   270.70    0.454   0.443   0.431   0.427   0.427   0.417   0.468   0.479   0.495   0.502   0.495   0.480   0.479   0.480   0.491   0.472   0.466   0.482   0.500   0.535   0.511   0.464   0.450   0.442   0.503   0.486   0.456   0.459   0.485   0.508   0.449   0.439   0.449   0.459   0.476   0.476   0.437   0.388   0.397   0.404   0.449   0.452   0.472   0.459   0.432   0.437   0.452   0.462   0.476   0.456   0.487   0.466   0.459   0.485   0.486   0.484   0.515   0.486   0.487   0.494   0.486   0.489   0.494   0.472   0.471   0.462   0.472   0.467   0.508   0.471   0.491   0.485   0.459   0.438   0.442   0.450   0.421   0.400   0.369   0.413   0.442   0.425   0.442   0.444   0.433   0.430   0.436   0.431   0.415   0.419   0.396   0.408   0.369   0.388   0.387   0.419   0.398   0.382   0.407   0.423   0.402   0.439   0.420   0.458   0.450   0.450   0.461   0.434   0.491   0.493   0.493   0.493   0.516   0.490   0.505   0.486   0.477   0.465   0.467   0.445   0.431   0.416   0.424   0.402   0.415   0.453   0.451   0.439   0.415   0.438   0.454   0.445   0.468   0.462   0.478   0.456   0.457   0.470   0.443   0.448   0.440   0.484   0.498   0.449   0.451   0.437   0.441   0.468   0.477   0.489   0.488   0.488   0.539   0.534   0.558   0.580   0.608   0.589   0.614   0.588   0.535   0.520   0.519   0.553   0.564   0.521   0.525   0.499   0.470   0.450   0.473   0.462   0.466   0.443   0.462   0.479   0.469   0.479   0.495   0.496   0.497   0.502   0.535   0.519   0.535   0.500   0.514   0.505   0.510   0.544   0.500   0.478   0.466
   261.40    0.458   0.457   0.449   0.457   0.411   0.420   0.463   0.475   0.484   0.500   0.458   0.445   0.438   0.426   0.462   0.459   0.499   0.480   0.505   0.511   0.499   0.486   0.467   0.474   0.489   0.492   0.455   0.445   0.458   0.457   0.443   0.446   0.427   0.447   0.452   0.445   0.442   0.392   0.405   0.428   0.465   0.458   0.478   0.432   0.443   0.441   0.441   0.451   0.463   0.472   0.514   0.506   0.477   0.504   0.487   0.497   0.496   0.512   0.476   0.465   0.487   0.505   0.525   0.485   0.475   0.482   0.468   0.475   0.513   0.490   0.500   0.496   0.458   0.442   0.440   0.426   0.434   0.410   0.394   0.400   0.421   0.439   0.438   0.425   0.453   0.442   0.441   0.444   0.429   0.408   0.405   0.388   0.377   0.398   0.398   0.435   0.452   0.414   0.408   0.435   0.418   0.443   0.426   0.467   0.459   0.464   0.465   0.451   0.498   0.466   0.484   0.487   0.501   0.454   0.459   0.441   0.459   0.476   0.467   0.464   0.465   0.421   0.396   0.418   0.432   0.468   0.453   0.420   0.447   0.464   0.487   0.447   0.415   0.423   0.441   0.439   0.423   0.441   0.438   0.454   0.474   0.460   0.484   0.477   0.468   0.448   0.459   0.485   0.463   0.486   0.482   0.519   0.520   0.518   0.546   0.558   0.548   0.565   0.609   0.589   0.581   0.524   0.538   0.545   0.544   0.524   0.515   0.490   0.467   0.460   0.453   0.468   0.460   0.455   0.476   0.443   0.440   0.462   0.500   0.516   0.500   0.480   0.521   0.529   0.491   0.525   0.534   0.545   0.550   0.560   0.531   0.471   0.429
   252.10    0.452   0.470   0.483   0.429   0.409   0.439   0.473   0.430   0.437   0.462   0.478   0.446   0.434   0.424   0.408   0.424   0.485   0.486   0.492   0.511   0.492   0.483   0.493   0.499   0.485   0.458   0.454   0.448   0.425   0.450   0.448   0.441   0.416   0.445   0.453   0.467   0.429   0.415   0.410   0.408   0.431   0.484   0.474   0.465   0.439   0.455   0.430   0.423   0.436   0.455   0.469   0.469   0.503   0.475   0.485   0.468   0.454   0.481   0.468   0.441   0.445   0.502   0.531   0.505   0.467   0.455   0.490   0.488   0.498   0.505   0.499   0.471   0.432   0.434   0.446   0.414   0.437   0.412   0.419   0.408   0.451   0.423   0.419   0.413   0.408   0.418   0.423   0.417   0.431   0.424   0.432   0.396   0.395   0.380   0.390   0.407   0.421   0.429   0.417   0.450   0.432   0.409   0.423   0.433   0.452   0.451   0.480   0.476   0.460   0.464   0.462   0.491   0.489   0.445   0.476   0.421   0.435   0.457   0.477   0.494   0.504   0.428   0.425   0.418   0.443   0.457   0.438   0.409   0.461   0.465   0.451   0.463   0.401   0.418   0.448   0.422   0.440   0.423   0.425   0.416   0.450   0.453   0.490   0.488   0.470   0.460   0.488   0.514   0.499   0.489   0.478   0.505   0.527   0.536   0.566   0.559   0.566   0.539   0.586   0.578   0.599   0.564   0.566   0.570   0.570   0.498   0.475   0.454   0.447   0.459   0.457   0.468   0.440   0.446   0.484   0.465   0.465   0.488   0.510   0.521   0.521   0.501   0.519   0.553   0.537   0.559   0.560   0.536   0.519   0.537   0.527   0.471   0.454
   242.80    0.414   0.448   0.448   0.425   0.457   0.468   0.484   0.437   0.440   0.478   0.479   0.437   0.400   0.402   0.409   0.439   0.473   0.474   0.483   0.518   0.510   0.494   0.514   0.515   0.488   0.474   0.443   0.436   0.433   0.442   0.438   0.432   0.414   0.430   0.435   0.466   0.472   0.425   0.398   0.404   0.420   0.444   0.436   0.478   0.464   0.461   0.457   0.420   0.404   0.430   0.448   0.450   0.460   0.471   0.472   0.476   0.456   0.466   0.437   0.433   0.431   0.471   0.489   0.478   0.486   0.484   0.487   0.484   0.527   0.514   0.488   0.450   0.421   0.437   0.420   0.424   0.443   0.418   0.435   0.445   0.424   0.421   0.388   0.398   0.395   0.393   0.412   0.429   0.420   0.439   0.433   0.451   0.425   0.390   0.391   0.408   0.431   0.436   0.442   0.481   0.457   0.457   0.451   0.435   0.436   0.420   0.452   0.481   0.446   0.456   0.447   0.457   0.457   0.457   0.459   0.449   0.477   0.485   0.483   0.496   0.458   0.442   0.414   0.426   0.447   0.433   0.412   0.452   0.471   0.477   0.449   0.445   0.440   0.436   0.430   0.407   0.436   0.428   0.411   0.406   0.449   0.443   0.487   0.470   0.487   0.494   0.510   0.497   0.489   0.498   0.482   0.519   0.527   0.571   0.564   0.565   0.540   0.556   0.563   0.595   0.603   0.580   0.599   0.578   0.579   0.519   0.499   0.476   0.491   0.457   0.460   0.458   0.458   0.462   0.460   0.442   0.481   0.473   0.519   0.523   0.489   0.511   0.480   0.516   0.554   0.550   0.525   0.535   0.519   0.493   0.482   0.483   0.419
   233.50    0.409   0.448   0.461   0.441   0.453   0.442   0.449   0.421   0.454   0.467   0.443   0.397   0.392   0.388   0.397   0.424   0.424   0.468   0.449   0.473   0.457   0.493   0.481   0.530   0.484   0.457   0.466   0.421   0.432   0.424   0.436   0.461   0.440   0.430   0.416   0.444   0.459   0.454   0.441   0.433   0.424   0.416   0.436   0.480   0.481   0.448   0.433   0.419   0.408   0.422   0.438   0.438   0.447   0.448   0.423   0.442   0.457   0.423   0.439   0.408   0.408   0.435   0.462   0.458   0.477   0.483   0.473   0.478   0.516   0.530   0.518   0.474   0.433   0.438   0.425   0.434   0.444   0.426   0.455   0.435   0.410   0.415   0.389   0.409   0.401   0.404   0.385   0.390   0.391   0.405   0.430   0.436   0.431   0.440   0.437   0.425   0.396   0.426   0.469   0.474   0.444   0.460   0.464   0.479   0.460   0.484   0.458   0.470   0.413   0.448   0.462   0.435   0.432   0.450   0.459   0.471   0.456   0.474   0.473   0.468   0.481   0.455   0.426   0.481   0.467   0.448   0.432   0.449   0.450   0.457   0.484   0.472   0.464   0.460   0.442   0.430   0.428   0.451   0.429   0.432   0.445   0.442   0.452   0.467   0.499   0.489   0.506   0.490   0.485   0.484   0.502   0.494   0.537   0.547   0.579   0.565   0.540   0.566   0.563   0.589   0.582   0.616   0.594   0.576   0.538   0.540   0.506   0.500   0.481   0.463   0.485   0.474   0.450   0.449   0.435   0.442   0.441   0.476   0.479   0.499   0.495   0.491   0.468   0.507   0.508   0.556   0.563   0.499   0.500   0.509   0.477   0.453   0.398
   224.20    0.400   0.419   0.433   0.444   0.459   0.414   0.457   0.431   0.411   0.427   0.427   0.416   0.370   0.379   0.398   0.407   0.407   0.448   0.449   0.445   0.460   0.496   0.496   0.489   0.493   0.497   0.481   0.443   0.410   0.420   0.438   0.458   0.438   0.453   0.446   0.413   0.433   0.460   0.454   0.454   0.422   0.414   0.442   0.484   0.465   0.480   0.448   0.426   0.406   0.408   0.445   0.470   0.435   0.447   0.430   0.422   0.409   0.403   0.380   0.400   0.446   0.480   0.464   0.438   0.438   0.457   0.482   0.447   0.487   0.514   0.512   0.454   0.436   0.433   0.403   0.396   0.430   0.436   0.430   0.440   0.434   0.431   0.413   0.387   0.398   0.411   0.369   0.383   0.395   0.406   0.419   0.436   0.457   0.431   0.446   0.448   0.440   0.438   0.455   0.490   0.480   0.505   0.494   0.509   0.491   0.491   0.494   0.440   0.458   0.464   0.481   0.449   0.424   0.454   0.435   0.461   0.456   0.437   0.427   0.431   0.424   0.409   0.424   0.443   0.464   0.459   0.438   0.454   0.453   0.472   0.488   0.465   0.478   0.442   0.445   0.476   0.435   0.477   0.448   0.420   0.463   0.446   0.458   0.451   0.472   0.506   0.495   0.455   0.463   0.451   0.481   0.470   0.536   0.555   0.552   0.561   0.548   0.562   0.579   0.568   0.563   0.587   0.563   0.551   0.538   0.499   0.519   0.490   0.482   0.464   0.478   0.519   0.490   0.438   0.429   0.414   0.438   0.449   0.445   0.464   0.487   0.509   0.498   0.520   0.515   0.564   0.521   0.501   0.471   0.511   0.458   0.455   0.428
   214.90    0.403   0.439   0.472   0.442   0.456   0.458   0.421   0.432   0.376   0.394   0.389   0.416   0.376   0.400   0.415   0.398   0.376   0.418   0.451   0.417   0.440   0.477   0.480   0.486   0.474   0.465   0.453   0.430   0.435   0.392   0.416   0.437   0.457   0.429   0.429   0.425   0.402   0.432   0.438   0.462   0.436   0.450   0.481   0.469   0.478   0.443   0.465   0.424   0.407   0.412   0.444   0.453   0.470   0.453   0.444   0.413   0.407   0.396   0.429   0.449   0.496   0.497   0.489   0.446   0.452   0.476   0.484   0.466   0.453   0.461   0.486   0.435   0.431   0.417   0.387   0.410   0.428   0.446   0.440   0.437   0.415   0.445   0.404   0.393   0.413   0.398   0.387   0.389   0.404   0.404   0.430   0.442   0.426   0.457   0.445   0.436   0.429   0.436   0.452   0.460   0.476   0.485   0.506   0.512   0.482   0.504   0.472   0.452   0.461   0.452   0.472   0.448   0.446   0.433   0.467   0.459   0.452   0.443   0.436   0.450   0.428   0.420   0.446   0.456   0.429   0.433   0.459   0.443   0.453   0.477   0.442   0.475   0.468   0.484   0.470   0.486   0.462   0.464   0.445   0.462   0.454   0.450   0.444   0.482   0.466   0.482   0.503   0.489   0.471   0.462   0.453   0.462   0.517   0.557   0.567   0.548   0.572   0.590   0.580   0.552   0.557   0.563   0.533   0.538   0.533   0.529   0.539   0.530   0.531   0.490   0.517   0.498   0.472   0.459   0.466   0.479   0.431   0.453   0.450   0.472   0.447   0.470   0.496   0.485   0.493   0.521   0.526   0.459   0.453   0.478   0.495   0.486   0.450
   205.60    0.397   0.415   0.405   0.438   0.449   0.448   0.427   0.405   0.423   0.377   0.386   0.404   0.383   0.389   0.407   0.386   0.397   0.408   0.452   0.426   0.427   0.469   0.463   0.461   0.471   0.425   0.433   0.427   0.425   0.394   0.404   0.429   0.440   0.423   0.415   0.431   0.424   0.418   0.447   0.437   0.440   0.473   0.480   0.493   0.450   0.461   0.462   0.427   0.431   0.438   0.430   0.460   0.481   0.457   0.433   0.401   0.412   0.403   0.421   0.470   0.490   0.489   0.489   0.479   0.495   0.449   0.468   0.451   0.432   0.433   0.451   0.445   0.423   0.400   0.412   0.396   0.441   0.493   0.478   0.473   0.468   0.473   0.443   0.410   0.420   0.414   0.377   0.376   0.397   0.405   0.394   0.413   0.450   0.445   0.461   0.446   0.448   0.426   0.459   0.450   0.451   0.478   0.479   0.505   0.507   0.492   0.465   0.445   0.466   0.431   0.416   0.429   0.405   0.434   0.442   0.452   0.436   0.420   0.434   0.445   0.432   0.439   0.468   0.460   0.457   0.461   0.436   0.432   0.435   0.441   0.456   0.465   0.456   0.514   0.481   0.481   0.467   0.484   0.463   0.458   0.474   0.455   0.448   0.469   0.436   0.484   0.474   0.442   0.443   0.445   0.452   0.473   0.493   0.564   0.586   0.551   0.566   0.551   0.581   0.550   0.546   0.570   0.534   0.523   0.521   0.500   0.516   0.515   0.521   0.499   0.517   0.485   0.453   0.444   0.443   0.472   0.448   0.452   0.453   0.453   0.463   0.459   0.477   0.488   0.481   0.508   0.511   0.473   0.452   0.482   0.507   0.503   0.464
   196.30    0.403   0.404   0.404   0.459   0.450   0.439   0.417   0.414   0.433   0.402   0.391   0.387   0.406   0.425   0.418   0.399   0.406   0.414   0.429   0.449   0.409   0.439   0.477   0.454   0.435   0.426   0.397   0.420   0.408   0.400   0.399   0.411   0.406   0.423   0.443   0.448   0.454   0.446   0.445   0.433   0.454   0.470   0.456   0.455   0.425   0.459   0.426   0.419   0.429   0.446   0.444   0.438   0.448   0.457   0.432   0.432   0.465   0.463   0.449   0.467   0.480   0.480   0.490   0.498   0.491   0.467   0.479   0.456   0.462   0.444   0.449   0.438   0.421   0.415   0.416   0.427   0.453   0.458   0.469   0.499   0.487   0.447   0.451   0.410   0.414   0.384   0.375   0.383   0.394   0.373   0.392   0.379   0.423   0.414   0.412   0.440   0.447   0.466   0.466   0.428   0.459   0.471   0.470   0.486   0.480   0.469   0.428   0.436   0.428   0.414   0.438   0.442   0.425   0.432   0.449   0.414   0.402   0.434   0.449   0.442   0.420   0.449   0.443   0.467   0.445   0.453   0.443   0.434   0.463   0.465   0.464   0.446   0.482   0.488   0.471   0.474   0.474   0.468   0.469   0.456   0.484   0.478   0.457   0.470   0.460   0.446   0.474   0.472   0.440   0.461   0.468   0.490   0.513   0.548   0.530   0.530   0.533   0.541   0.547   0.561   0.545   0.583   0.565   0.548   0.483   0.512   0.526   0.525   0.514   0.525   0.514   0.496   0.447   0.458   0.418   0.419   0.426   0.429   0.436   0.454   0.435   0.477   0.465   0.463   0.459   0.474   0.478   0.463   0.483   0.490   0.495   0.492   0.443
   187.00    0.411   0.379   0.375   0.404   0.399   0.404   0.411   0.433   0.423   0.409   0.394   0.399   0.388   0.378   0.423   0.455   0.463   0.454   0.439   0.444   0.443   0.445   0.455   0.453   0.396   0.404   0.430   0.414   0.420   0.411   0.422   0.427   0.411   0.446   0.455   0.487   0.489   0.488   0.480   0.468   0.450   0.463   0.453   0.438   0.418   0.415   0.418   0.413   0.422   0.411   0.425   0.420   0.415   0.440   0.409   0.414   0.430   0.432   0.470   0.468   0.473   0.495   0.513   0.510   0.498   0.489   0.469   0.435   0.443   0.451   0.444   0.412   0.416   0.421   0.420   0.434   0.433   0.449   0.468   0.479   0.457   0.448   0.422   0.403   0.380   0.398   0.441   0.422   0.435   0.408   0.414   0.378   0.396   0.409   0.415   0.450   0.437   0.449   0.451   0.431   0.442   0.467   0.469   0.456   0.438   0.438   0.415   0.410   0.402   0.428   0.438   0.468   0.449   0.410   0.397   0.439   0.417   0.437   0.438   0.413   0.406   0.421   0.424   0.433   0.430   0.449   0.469   0.450   0.461   0.486   0.479   0.464   0.426   0.464   0.471   0.462   0.468   0.464   0.465   0.439   0.494   0.510   0.476   0.486   0.477   0.478   0.476   0.473   0.450   0.452   0.476   0.498   0.483   0.487   0.489   0.522   0.495   0.515   0.551   0.550   0.523   0.537   0.516   0.492   0.485   0.489   0.509   0.490   0.508   0.487   0.487   0.459   0.456   0.438   0.399   0.388   0.393   0.400   0.414   0.396   0.427   0.484   0.457   0.471   0.411   0.446   0.446   0.429   0.502   0.499   0.495   0.448   0.439
   177.70    0.434   0.412   0.385   0.384   0.388   0.405   0.402   0.433   0.416   0.436   0.392   0.369   0.381   0.360   0.420   0.460   0.469   0.477   0.479   0.472   0.457   0.437   0.447   0.420   0.412   0.434   0.455   0.419   0.413   0.420   0.407   0.433   0.420   0.438   0.456   0.462   0.468   0.456   0.468   0.462   0.457   0.465   0.425   0.425   0.437   0.412   0.415   0.400   0.391   0.399   0.426   0.392   0.423   0.438   0.414   0.399   0.415   0.436   0.465   0.457   0.448   0.476   0.474   0.466   0.478   0.490   0.466   0.446   0.458   0.471   0.443   0.401   0.424   0.428   0.411   0.443   0.461   0.466   0.483   0.472   0.451   0.444   0.420   0.370   0.370   0.372   0.406   0.411   0.412   0.422   0.402   0.395   0.384   0.401   0.390   0.419   0.412   0.423   0.424   0.423   0.449   0.424   0.426   0.427   0.454   0.422   0.420   0.394   0.417   0.456   0.441   0.463   0.443   0.451   0.454   0.436   0.440   0.445   0.445   0.420   0.408   0.408   0.392   0.402   0.430   0.428   0.469   0.473   0.494   0.482   0.442   0.447   0.445   0.466   0.464   0.446   0.467   0.445   0.446   0.438   0.488   0.503   0.502   0.486   0.496   0.505   0.506   0.519   0.490   0.462   0.483   0.507   0.497   0.513   0.461   0.476   0.483   0.531   0.516   0.502   0.516   0.501   0.496   0.494   0.484   0.489   0.490   0.502   0.473   0.470   0.471   0.454   0.443   0.424   0.400   0.398   0.380   0.391   0.387   0.411   0.449   0.452   0.482   0.458   0.431   0.447   0.441   0.431   0.467   0.474   0.460   0.435   0.417
   168.40    0.449   0.460   0.422   0.408   0.393   0.370   0.398   0.405   0.390   0.402   0.403   0.373   0.378   0.401   0.428   0.444   0.480   0.463   0.491   0.480   0.459   0.448   0.451   0.449   0.436   0.436   0.478   0.441   0.434   0.429   0.424   0.426   0.416   0.426   0.435   0.465   0.446   0.460   0.490   0.443   0.479   0.466   0.458   0.480   0.470   0.452   0.435   0.412   0.414   0.437   0.422   0.417   0.422   0.432   0.439   0.409   0.422   0.442   0.455   0.432   0.445   0.447   0.451   0.458   0.451   0.454   0.451   0.425   0.437   0.477   0.451   0.426   0.408   0.403   0.410   0.447   0.445   0.449   0.458   0.457   0.483   0.447   0.427   0.402   0.385   0.374   0.384   0.402   0.423   0.424   0.420   0.409   0.389   0.393   0.400   0.441   0.414   0.420   0.417   0.419   0.418   0.440   0.437   0.430   0.422   0.423   0.415   0.416   0.415   0.419   0.396   0.448   0.469   0.452   0.447   0.438   0.455   0.463   0.492   0.464   0.447   0.442   0.403   0.445   0.472   0.476   0.488   0.507   0.530   0.476   0.426   0.433   0.430   0.419   0.427   0.457   0.449   0.448   0.468   0.468   0.464   0.480   0.504   0.487   0.492   0.495   0.509   0.500   0.496   0.469   0.465   0.512   0.485   0.454   0.433   0.447   0.475   0.511   0.488   0.523   0.490   0.494   0.488   0.517   0.502   0.493   0.511   0.468   0.455   0.447   0.430   0.455   0.457   0.432   0.423   0.410   0.422   0.408   0.415   0.399   0.449   0.459   0.468   0.459   0.480   0.451   0.458   0.460   0.459   0.434   0.448   0.437   0.374
   159.10    0.458   0.440   0.442   0.394   0.383   0.415   0.376   0.367   0.378   0.374   0.383   0.385   0.382   0.411   0.467   0.454   0.475   0.476   0.478   0.471   0.459   0.461   0.437   0.460   0.430   0.442   0.446   0.448   0.443   0.446   0.424   0.419   0.415   0.414   0.423   0.441   0.447   0.475   0.504   0.463   0.476   0.481   0.484   0.492   0.468   0.433   0.443   0.419   0.410   0.421   0.422   0.388   0.398   0.420   0.380   0.423   0.433   0.449   0.442   0.404   0.409   0.395   0.412   0.439   0.443   0.436   0.439   0.429   0.418   0.467   0.444   0.445   0.424   0.397   0.399   0.406   0.426   0.428   0.421   0.437   0.429   0.404   0.380   0.388   0.376   0.375   0.386   0.385   0.435   0.468   0.440   0.397   0.371   0.400   0.408   0.417   0.450   0.438   0.409   0.427   0.401   0.448   0.449   0.442   0.429   0.427   0.423   0.430   0.437   0.414   0.419   0.460   0.440   0.447   0.425   0.417   0.462   0.462   0.442   0.474   0.479   0.463   0.464   0.439   0.444   0.471   0.474   0.497   0.532   0.502   0.480   0.460   0.462   0.446   0.434   0.456   0.463   0.450   0.464   0.488   0.486   0.470   0.512   0.512   0.503   0.506   0.501   0.512   0.477   0.491   0.477   0.498   0.490   0.444   0.436   0.437   0.483   0.498   0.513   0.494   0.476   0.441   0.450   0.500   0.550   0.532   0.527   0.484   0.464   0.468   0.471   0.468   0.464   0.466   0.449   0.441   0.442   0.448   0.439   0.438   0.420   0.474   0.435   0.455   0.479   0.453   0.432   0.470   0.467   0.469   0.460   0.439   0.388
   149.80    0.457   0.435   0.436   0.435   0.424   0.426   0.406   0.376   0.378   0.381   0.372   0.378   0.409   0.433   0.479   0.479   0.465   0.496   0.486   0.490   0.482   0.463   0.460   0.469   0.467   0.475   0.454   0.467   0.462   0.439   0.432   0.435   0.405   0.395   0.403   0.441   0.458   0.470   0.500   0.486   0.455   0.449   0.482   0.461   0.451   0.450   0.422   0.416   0.431   0.411   0.427   0.425   0.387   0.411   0.402   0.427   0.435   0.435   0.423   0.408   0.404   0.433   0.396   0.396   0.395   0.402   0.419   0.429   0.417   0.446   0.468   0.454   0.448   0.423   0.424   0.421   0.416   0.392   0.421   0.451   0.409   0.414   0.392   0.380   0.347   0.370   0.376   0.421   0.432   0.438   0.431   0.437   0.405   0.401   0.419   0.437   0.480   0.450   0.412   0.398   0.409   0.412   0.459   0.435   0.434   0.442   0.424   0.435   0.442   0.429   0.427   0.444   0.425   0.431   0.423   0.456   0.474   0.469   0.451   0.456   0.492   0.481   0.454   0.486   0.472   0.454   0.467   0.479   0.507   0.508   0.480   0.480   0.480   0.469   0.469   0.467   0.463   0.465   0.468   0.491   0.471   0.491   0.520   0.505   0.495   0.504   0.470   0.457   0.479   0.490   0.489   0.509   0.459   0.440   0.443   0.485   0.496   0.499   0.482   0.466   0.482   0.476   0.466   0.476   0.520   0.520   0.480   0.487   0.455   0.473   0.463   0.456   0.448   0.436   0.436   0.421   0.405   0.434   0.442   0.412   0.439   0.450   0.478   0.442   0.440   0.456   0.436   0.461   0.465   0.446   0.463   0.403   0.393
   140.50    0.461   0.448   0.426   0.387   0.423   0.413   0.375   0.379   0.387   0.397   0.384   0.376   0.389   0.448   0.473   0.479   0.492   0.507   0.496   0.518   0.505   0.475   0.482   0.491   0.491   0.493   0.474   0.436   0.449   0.433   0.459   0.451   0.434   0.444   0.428   0.443   0.427   0.490   0.500   0.487   0.498   0.465   0.479   0.462   0.422   0.408   0.407   0.444   0.456   0.445   0.413   0.390   0.381   0.402   0.394   0.396   0.394   0.403   0.395   0.408   0.444   0.426   0.394   0.379   0.380   0.392   0.400   0.418   0.441   0.442   0.468   0.481   0.479   0.443   0.405   0.393   0.431   0.429   0.430   0.451   0.429   0.391   0.397   0.383   0.391   0.369   0.386   0.383   0.435   0.457   0.445   0.458   0.447   0.423   0.461   0.457   0.470   0.449   0.411   0.423   0.421   0.419   0.471   0.480   0.465   0.436   0.434   0.450   0.451   0.456   0.444   0.398   0.436   0.437   0.458   0.470   0.493   0.496   0.470   0.460   0.494   0.530   0.507   0.491   0.449   0.438   0.483   0.489   0.498   0.496   0.487   0.480   0.510   0.495   0.493   0.487   0.491   0.466   0.473   0.498   0.507   0.506   0.525   0.517   0.514   0.486   0.450   0.439   0.439   0.484   0.514   0.513   0.469   0.441   0.456   0.504   0.502   0.494   0.509   0.487   0.475   0.477   0.509   0.524   0.507   0.506   0.508   0.489   0.489   0.486   0.489   0.482   0.457   0.425   0.386   0.410   0.395   0.414   0.406   0.417   0.427   0.443   0.444   0.467   0.448   0.452   0.479   0.457   0.424   0.439   0.436   0.443   0.387
   131.20    0.495   0.468   0.416   0.434   0.420   0.405   0.399   0.372   0.372   0.368   0.399   0.374   0.388   0.441   0.455   0.473   0.506   0.480   0.518   0.501   0.512   0.546   0.537   0.501   0.517   0.509   0.458   0.452   0.431   0.431   0.421   0.452   0.485   0.501   0.471   0.466   0.465   0.518   0.533   0.507   0.487   0.453   0.489   0.461   0.439   0.428   0.428   0.441   0.440   0.451   0.442   0.428   0.375   0.388   0.384   0.391   0.398   0.409   0.429   0.425   0.396   0.417   0.392   0.410   0.386   0.392   0.405   0.412   0.410   0.457   0.472   0.461   0.481   0.478   0.439   0.424   0.425   0.422   0.451   0.443   0.434   0.390   0.376   0.385   0.379   0.366   0.376   0.400   0.415   0.418   0.420   0.417   0.434   0.444   0.466   0.429   0.456   0.441   0.449   0.478   0.450   0.462   0.448   0.495   0.477   0.456   0.484   0.457   0.482   0.459   0.469   0.473   0.452   0.443   0.439   0.485   0.490   0.487   0.477   0.472   0.508   0.511   0.514   0.512   0.491   0.480   0.509   0.484   0.516   0.523   0.528   0.521   0.517   0.510   0.495   0.481   0.524   0.501   0.469   0.504   0.523   0.527   0.521   0.485   0.478   0.464   0.455   0.435   0.463   0.492   0.511   0.493   0.473   0.464   0.473   0.482   0.492   0.511   0.503   0.481   0.503   0.488   0.494   0.500   0.499   0.500   0.492   0.524   0.536   0.517   0.529   0.495   0.466   0.418   0.398   0.422   0.421   0.401   0.412   0.394   0.419   0.440   0.426   0.437   0.438   0.440   0.465   0.443   0.460   0.437   0.402   0.426   0.447
   121.90    0.528   0.496   0.469   0.437   0.444   0.424   0.403   0.389   0.396   0.406   0.390   0.401   0.418   0.446   0.459   0.461   0.497   0.488   0.509   0.522   0.510   0.525   0.534   0.504   0.526   0.488   0.485   0.454   0.421   0.419   0.426   0.453   0.463   0.467   0.471   0.437   0.465   0.481   0.501   0.498   0.472   0.448   0.472   0.482   0.471   0.495   0.451   0.403   0.432   0.418   0.433   0.412   0.362   0.366   0.388   0.407   0.422   0.399   0.414   0.400   0.387   0.407   0.408   0.417   0.402   0.393   0.412   0.397   0.399   0.456   0.436   0.439   0.455   0.441   0.441   0.424   0.445   0.402   0.407   0.435   0.425   0.400   0.394   0.369   0.410   0.402   0.415   0.379   0.424   0.416   0.415   0.425   0.430   0.427   0.447   0.439   0.459   0.466   0.438   0.492   0.513   0.470   0.461   0.468   0.453   0.461   0.464   0.463   0.473   0.452   0.471   0.477   0.427   0.437   0.457   0.482   0.510   0.499   0.474   0.490   0.531   0.538   0.536   0.545   0.511   0.521   0.522   0.531   0.523   0.509   0.521   0.511   0.531   0.546   0.516   0.565   0.556   0.505   0.522   0.515   0.518   0.510   0.501   0.470   0.462   0.470   0.445   0.469   0.497   0.485   0.486   0.487   0.492   0.482   0.463   0.492   0.499   0.482   0.504   0.516   0.487   0.483   0.438   0.489   0.486   0.476   0.502   0.517   0.517   0.543   0.510   0.503   0.486   0.470   0.447   0.450   0.447   0.435   0.430   0.425   0.433   0.439   0.405   0.427   0.419   0.427   0.471   0.444   0.474   0.462   0.464   0.431   0.428
   112.60    0.493   0.505   0.527   0.506   0.484   0.474   0.392   0.400   0.389   0.406   0.399   0.430   0.420   0.421   0.428   0.459   0.478   0.504   0.508   0.533   0.556   0.559   0.518   0.527   0.497   0.466   0.454   0.449   0.432   0.402   0.430   0.428   0.427   0.446   0.487   0.472   0.477   0.501   0.482   0.470   0.474   0.458   0.453   0.511   0.492   0.515   0.489   0.442   0.405   0.399   0.432   0.408   0.339   0.363   0.378   0.404   0.396   0.396   0.412   0.388   0.400   0.396   0.427   0.441   0.428   0.416   0.421   0.406   0.425   0.421   0.442   0.428   0.410   0.431   0.417   0.465   0.434   0.396   0.433   0.417   0.417   0.413   0.409   0.428   0.419   0.416   0.400   0.392   0.410   0.424   0.401   0.418   0.420   0.450   0.454   0.428   0.453   0.447   0.501   0.494   0.477   0.499   0.474   0.444   0.458   0.483   0.484   0.471   0.464   0.459   0.445   0.460   0.459   0.459   0.473   0.509   0.510   0.479   0.500   0.508   0.505   0.531   0.521   0.510   0.558   0.531   0.543   0.520   0.515   0.490   0.524   0.517   0.516   0.536   0.538   0.544   0.561   0.536   0.531   0.521   0.516   0.520   0.480   0.485   0.470   0.480   0.477   0.487   0.494   0.502   0.509   0.497   0.465   0.469   0.482   0.471   0.460   0.471   0.505   0.510   0.502   0.490   0.460   0.472   0.473   0.474   0.486   0.517   0.506   0.495   0.492   0.512   0.483   0.476   0.436   0.416   0.419   0.426   0.430   0.446   0.440   0.435   0.438   0.448   0.427   0.445   0.459   0.432   0.464   0.454   0.463   0.431   0.442
   103.30    0.471   0.500   0.511   0.510   0.465   0.478   0.453   0.412   0.391   0.408   0.425   0.407   0.448   0.418   0.433   0.461   0.489   0.512   0.542   0.558   0.524   0.535   0.554   0.521   0.508   0.449   0.456   0.450   0.441   0.469   0.441   0.443   0.444   0.448   0.465   0.444   0.482   0.473   0.475   0.471   0.441   0.436   0.449   0.465   0.476   0.486   0.464   0.458   0.406   0.406   0.389   0.395   0.372   0.352   0.364   0.397   0.387   0.386   0.368   0.371   0.388   0.398   0.426   0.429   0.405   0.429   0.447   0.400   0.428   0.420   0.444   0.440   0.424   0.428   0.443   0.412   0.426   0.419   0.421   0.438   0.415   0.396   0.378   0.407   0.417   0.425   0.404   0.424   0.445   0.434   0.436   0.418   0.445   0.431   0.470   0.491   0.436   0.492   0.516   0.484   0.478   0.455   0.466   0.474   0.495   0.476   0.459   0.458   0.462   0.449   0.438   0.478   0.486   0.479   0.478   0.506   0.496   0.520   0.519   0.521   0.521   0.531   0.537   0.498   0.522   0.527   0.525   0.516   0.509   0.528   0.524   0.513   0.514   0.505   0.485   0.528   0.549   0.564   0.495   0.515   0.527   0.499   0.474   0.491   0.468   0.473   0.478   0.481   0.514   0.517   0.520   0.468   0.485   0.448   0.465   0.480   0.445   0.457   0.490   0.497   0.480   0.455   0.435   0.480   0.456   0.473   0.481   0.465   0.478   0.464   0.488   0.491   0.482   0.465   0.422   0.422   0.451   0.429   0.425   0.426   0.420   0.447   0.436   0.459   0.444   0.452   0.468   0.462   0.451   0.449   0.473   0.450   0.457
    94.00    0.458   0.473   0.485   0.473   0.463   0.469   0.488   0.466   0.418   0.424   0.440   0.427   0.431   0.436   0.471   0.478   0.461   0.482   0.524   0.525   0.526   0.510   0.542   0.565   0.518   0.462   0.441   0.470   0.480   0.490   0.463   0.466   0.450   0.468   0.458   0.464   0.457   0.464   0.438   0.435   0.446   0.424   0.441   0.424   0.462   0.467   0.452   0.442   0.426   0.418   0.360   0.371   0.347   0.353   0.370   0.379   0.373   0.387   0.371   0.389   0.381   0.384   0.404   0.413   0.401   0.452   0.450   0.422   0.420   0.435   0.444   0.433   0.396   0.439   0.466   0.421   0.398   0.383   0.380   0.398   0.401   0.372   0.368   0.389   0.397   0.400   0.420   0.444   0.453   0.439   0.421   0.414   0.451   0.445   0.468   0.475   0.443   0.474   0.508   0.520   0.484   0.476   0.465   0.491   0.517   0.494   0.461   0.449   0.469   0.432   0.455   0.496   0.524   0.504   0.491   0.494   0.501   0.530   0.532   0.522   0.553   0.536   0.508   0.519   0.544   0.539   0.512   0.524   0.530   0.495   0.518   0.485   0.493   0.511   0.527   0.501   0.560   0.544   0.532   0.489   0.495   0.486   0.492   0.483   0.442   0.454   0.465   0.482   0.520   0.534   0.543   0.496   0.485   0.487   0.467   0.516   0.459   0.471   0.502   0.487   0.477   0.454   0.437   0.484   0.514   0.482   0.465   0.446   0.454   0.494   0.504   0.456   0.464   0.460   0.449   0.461   0.482   0.425   0.396   0.412   0.393   0.419   0.424   0.440   0.459   0.408   0.419   0.420   0.467   0.455   0.436   0.455   0.445
    84.70    0.413   0.430   0.470   0.456   0.460   0.487   0.482   0.470   0.457   0.455   0.460   0.439   0.442   0.432   0.433   0.449   0.462   0.453   0.474   0.488   0.521   0.529   0.514   0.549   0.548   0.505   0.473   0.495   0.469   0.466   0.433   0.436   0.445   0.434   0.408   0.450   0.435   0.442   0.453   0.440   0.439   0.463   0.459   0.435   0.463   0.458   0.440   0.438   0.423   0.407   0.382   0.385   0.367   0.376   0.359   0.350   0.339   0.354   0.349   0.375   0.408   0.414   0.364   0.394   0.450   0.451   0.463   0.414   0.428   0.415   0.415   0.413   0.428   0.429   0.455   0.457   0.420   0.390   0.409   0.405   0.394   0.381   0.385   0.382   0.395   0.402   0.415   0.432   0.432   0.454   0.435   0.409   0.440   0.429   0.446   0.445   0.453   0.465   0.487   0.504   0.474   0.482   0.529   0.503   0.536   0.479   0.468   0.466   0.460   0.461   0.467   0.497   0.513   0.513   0.504   0.512   0.520   0.522   0.514   0.540   0.556   0.522   0.523   0.552   0.571   0.543   0.514   0.521   0.493   0.509   0.509   0.501   0.531   0.548   0.519   0.506   0.541   0.500   0.505   0.460   0.452   0.455   0.477   0.486   0.464   0.452   0.458   0.477   0.506   0.517   0.541   0.499   0.457   0.468   0.493   0.505   0.488   0.479   0.506   0.503   0.483   0.463   0.482   0.485   0.485   0.465   0.449   0.451   0.469   0.474   0.487   0.483   0.477   0.448   0.448   0.481   0.467   0.457   0.426   0.415   0.412   0.404   0.426   0.445   0.443   0.423   0.414   0.409   0.416   0.454   0.450   0.433   0.451
    75.40    0.404   0.423   0.445   0.448   0.470   0.504   0.483   0.475   0.487   0.476   0.467   0.466   0.465   0.443   0.460   0.433   0.471   0.464   0.511   0.507   0.543   0.537   0.550   0.558   0.551   0.501   0.486   0.480   0.455   0.451   0.432   0.456   0.443   0.431   0.402   0.408   0.433   0.417   0.432   0.445   0.460   0.482   0.444   0.449   0.432   0.444   0.430   0.427   0.423   0.421   0.396   0.383   0.379   0.359   0.347   0.336   0.317   0.350   0.368   0.368   0.375   0.381   0.366   0.402   0.393   0.413   0.447   0.437   0.425   0.426   0.427   0.428   0.460   0.432   0.462   0.458   0.428   0.417   0.395   0.402   0.374   0.370   0.374   0.385   0.373   0.419   0.429   0.421   0.459   0.439   0.446   0.443   0.411   0.412   0.413   0.448   0.472   0.482   0.474   0.490   0.487   0.496   0.533   0.507   0.540   0.505   0.484   0.476   0.480   0.483   0.499   0.481   0.509   0.488   0.519   0.497   0.527   0.531   0.526   0.569   0.575   0.579   0.566   0.565   0.590   0.560   0.567   0.573   0.532   0.542   0.557   0.586   0.552   0.543   0.515   0.510   0.503   0.519   0.474   0.450   0.444   0.467   0.480   0.493   0.479   0.478   0.487   0.477   0.497   0.519   0.544   0.494   0.469   0.472   0.495   0.522   0.523   0.523   0.534   0.516   0.502   0.487   0.464   0.490   0.498   0.472   0.451   0.449   0.454   0.453   0.480   0.484   0.482   0.484   0.455   0.484   0.492   0.450   0.433   0.436   0.417   0.398   0.426   0.435   0.427   0.435   0.425   0.423   0.415   0.417   0.402   0.414   0.452
    66.10    0.431   0.437   0.408   0.413   0.464   0.481   0.458   0.494   0.488   0.511   0.476   0.459   0.479   0.471   0.454   0.454   0.452   0.474   0.471   0.534   0.515   0.539   0.571   0.574   0.540   0.497   0.544   0.493   0.493   0.488   0.476   0.484   0.466   0.412   0.440   0.424   0.428   0.443   0.417   0.442   0.433   0.446   0.454   0.410   0.433   0.445   0.453   0.425   0.388   0.443   0.435   0.380   0.381   0.371   0.340   0.355   0.345   0.328   0.340   0.378   0.354   0.357   0.354   0.372   0.389   0.374   0.407   0.394   0.412   0.406   0.402   0.415   0.433   0.472   0.458   0.457   0.453   0.429   0.386   0.391   0.397   0.388   0.399   0.389   0.413   0.420   0.439   0.447   0.443   0.434   0.414   0.389   0.414   0.442   0.451   0.462   0.472   0.461   0.487   0.503   0.501   0.489   0.501   0.505   0.508   0.506   0.502   0.461   0.453   0.476   0.478   0.498   0.528   0.503   0.509   0.508   0.515   0.534   0.584   0.592   0.596   0.598   0.600   0.617   0.632   0.604   0.582   0.570   0.558   0.570   0.586   0.582   0.560   0.532   0.523   0.488   0.534   0.540   0.512   0.496   0.473   0.441   0.466   0.477   0.468   0.498   0.498   0.498   0.547   0.538   0.555   0.530   0.496   0.508   0.535   0.574   0.591   0.572   0.566   0.513   0.502   0.541   0.504   0.529   0.486   0.470   0.451   0.442   0.477   0.465   0.472   0.483   0.466   0.475   0.481   0.520   0.489   0.454   0.436   0.474   0.487   0.446   0.446   0.430   0.429   0.399   0.391   0.390   0.391   0.393   0.389   0.416   0.450
    56.80    0.414   0.418   0.409   0.404   0.406   0.443   0.443   0.459   0.486   0.502   0.475   0.469   0.475   0.474   0.448   0.443   0.434   0.473   0.507   0.482   0.537   0.535   0.550   0.530   0.537   0.536   0.539   0.528   0.505   0.487   0.485   0.468   0.462   0.445   0.440   0.437   0.426   0.451   0.470   0.433   0.438   0.454   0.438   0.432   0.421   0.447   0.422   0.393   0.409   0.415   0.421   0.397   0.399   0.389   0.373   0.347   0.355   0.377   0.398   0.364   0.376   0.379   0.403   0.389   0.410   0.405   0.409   0.410   0.421   0.397   0.385   0.428   0.460   0.474   0.472   0.441   0.449   0.452   0.387   0.392   0.392   0.419   0.401   0.417   0.391   0.394   0.412   0.415   0.406   0.404   0.401   0.425   0.442   0.412   0.458   0.461   0.490   0.487   0.445   0.475   0.476   0.459   0.469   0.517   0.519   0.507   0.472   0.482   0.476   0.482   0.479   0.520   0.493   0.509   0.528   0.536   0.509   0.544   0.570   0.571   0.564   0.571   0.607   0.585   0.595   0.604   0.597   0.549   0.565   0.550   0.602   0.617   0.561   0.581   0.525   0.541   0.490   0.482   0.502   0.458   0.486   0.469   0.473   0.482   0.489   0.492   0.502   0.523   0.553   0.536   0.495   0.517   0.541   0.536   0.558   0.568   0.569   0.544   0.529   0.515   0.547   0.542   0.523   0.508   0.504   0.504   0.498   0.454   0.448   0.475   0.478   0.464   0.465   0.464   0.466   0.487   0.489   0.456   0.446   0.474   0.504   0.474   0.459   0.412   0.418   0.391   0.396   0.419   0.387   0.385   0.380   0.431   0.427
    47.50    0.417   0.396   0.401   0.416   0.389   0.426   0.453   0.478   0.484   0.510   0.498   0.509   0.517   0.474   0.460   0.456   0.450   0.477   0.483   0.480   0.517   0.526   0.532   0.524   0.526   0.526   0.567   0.535   0.502   0.521   0.540   0.504   0.483   0.470   0.440   0.464   0.431   0.470   0.455   0.473   0.449   0.449   0.448   0.462   0.443   0.444   0.402   0.377   0.409   0.422   0.431   0.421   0.367   0.369   0.370   0.375   0.370   0.387   0.414   0.404   0.375   0.379   0.394   0.408   0.394   0.419   0.394   0.401   0.377   0.391   0.400   0.445   0.468   0.483   0.463   0.469   0.420   0.401   0.380   0.387   0.375   0.428   0.401   0.405   0.407   0.388   0.401   0.397   0.417   0.401   0.398   0.417   0.426   0.416   0.423   0.446   0.439   0.486   0.420   0.449   0.453   0.459   0.465   0.498   0.513   0.499   0.497   0.490   0.522   0.535   0.518   0.499   0.514   0.503   0.505   0.511   0.488   0.516   0.547   0.525   0.582   0.600   0.575   0.561   0.604   0.588   0.591   0.573   0.569   0.538   0.559   0.585   0.582   0.539   0.527   0.524   0.496   0.495   0.500   0.493   0.459   0.455   0.497   0.501   0.503   0.516   0.517   0.547   0.531   0.517   0.509   0.528   0.568   0.558   0.566   0.578   0.569   0.567   0.594   0.564   0.542   0.555   0.563   0.520   0.528   0.524   0.495   0.459   0.467   0.474   0.467   0.449   0.448   0.459   0.470   0.479   0.488   0.450   0.471   0.492   0.477   0.480   0.463   0.443   0.421   0.414   0.450   0.421   0.396   0.403   0.414   0.455   0.435
    38.20    0.431   0.419   0.394   0.415   0.404   0.445   0.449   0.445   0.482   0.476   0.466   0.490   0.496   0.512   0.475   0.442   0.443   0.451   0.454   0.510   0.490   0.530   0.516   0.528   0.511   0.539   0.523   0.524   0.502   0.509   0.506   0.510   0.502   0.471   0.413   0.450   0.443   0.454   0.475   0.475   0.500   0.476   0.471   0.495   0.459   0.428   0.408   0.395   0.402   0.415   0.421   0.422   0.421   0.388   0.375   0.411   0.411   0.404   0.436   0.428   0.388   0.402   0.426   0.419   0.435   0.413   0.411   0.410   0.387   0.385   0.390   0.395   0.459   0.457   0.455   0.449   0.409   0.393   0.391   0.381   0.415   0.423   0.439   0.394   0.359   0.406   0.409   0.414   0.418   0.417   0.405   0.450   0.433   0.440   0.448   0.420   0.436   0.434   0.426   0.438   0.431   0.446   0.460   0.466   0.483   0.476   0.487   0.500   0.510   0.532   0.529   0.514   0.499   0.469   0.480   0.509   0.493   0.500   0.508   0.513   0.564   0.570   0.612   0.591   0.643   0.629   0.550   0.519   0.544   0.543   0.528   0.563   0.581   0.520   0.506   0.487   0.492   0.533   0.517   0.462   0.465   0.412   0.480   0.524   0.542   0.500   0.506   0.500   0.525   0.534   0.544   0.542   0.562   0.573   0.555   0.591   0.626   0.633   0.630   0.580   0.571   0.550   0.560   0.541   0.554   0.526   0.518   0.488   0.459   0.480   0.461   0.469   0.468   0.451   0.452   0.465   0.489   0.480   0.501   0.493   0.490   0.449   0.440   0.452   0.423   0.446   0.458   0.456   0.420   0.396   0.434   0.476   0.477
    28.90    0.437   0.419   0.429   0.423   0.440   0.445   0.414   0.444   0.467   0.449   0.449   0.470   0.458   0.490   0.468   0.459   0.418   0.426   0.469   0.482   0.493   0.514   0.539   0.535   0.554   0.536   0.497   0.473   0.486   0.502   0.449   0.472   0.496   0.454   0.450   0.434   0.441   0.454   0.491   0.456   0.463   0.479   0.500   0.480   0.479   0.454   0.436   0.430   0.417   0.405   0.434   0.427   0.406   0.418   0.359   0.396   0.409   0.419   0.439   0.458   0.419   0.420   0.438   0.434   0.429   0.424   0.420   0.395   0.425   0.385   0.361   0.394   0.405   0.456   0.445   0.456   0.456   0.420   0.427   0.401   0.426   0.421   0.416   0.419   0.384   0.386   0.375   0.383   0.388   0.429   0.458   0.482   0.439   0.411   0.451   0.450   0.411   0.427   0.445   0.437   0.449   0.470   0.479   0.489   0.455   0.460   0.475   0.494   0.483   0.517   0.478   0.506   0.484   0.474   0.441   0.475   0.504   0.528   0.530   0.536   0.530   0.537   0.577   0.611   0.625   0.588   0.529   0.498   0.534   0.533   0.534   0.569   0.567   0.517   0.493   0.474   0.513   0.512   0.523   0.490   0.451   0.445   0.449   0.514   0.520   0.488   0.475   0.507   0.521   0.510   0.515   0.546   0.518   0.518   0.574   0.616   0.638   0.634   0.636   0.624   0.591   0.572   0.553   0.548   0.554   0.542   0.516   0.495   0.484   0.497   0.489   0.482   0.446   0.457   0.475   0.475   0.476   0.475   0.484   0.492   0.471   0.403   0.427   0.445   0.431   0.428   0.454   0.454   0.416   0.432   0.464   0.442   0.437
    19.60    0.444   0.452   0.447   0.427   0.433   0.437   0.443   0.464   0.451   0.406   0.453   0.463   0.460   0.492   0.464   0.451   0.444   0.410   0.446   0.481   0.448   0.522   0.533   0.548   0.526   0.501   0.479   0.485   0.487   0.485   0.446   0.455   0.459   0.460   0.454   0.445   0.451   0.516   0.505   0.491   0.488   0.473   0.466   0.469   0.480   0.460   0.435   0.448   0.413   0.418   0.448   0.450   0.400   0.409   0.376   0.392   0.409   0.421   0.459   0.427   0.418   0.434   0.449   0.429   0.427   0.425   0.449   0.434   0.414   0.387   0.397   0.386   0.380   0.436   0.449   0.441   0.487   0.414   0.440   0.424   0.407   0.415   0.419   0.401   0.429   0.409   0.388   0.369   0.391   0.436   0.482   0.513   0.471   0.445   0.450   0.445   0.408   0.415   0.441   0.448   0.470   0.481   0.498   0.483   0.467   0.475   0.470   0.503   0.496   0.475   0.492   0.483   0.490   0.480   0.468   0.466   0.463   0.504   0.519   0.505   0.517   0.524   0.588   0.592   0.561   0.522   0.510   0.539   0.544   0.557   0.536   0.574   0.534   0.516   0.482   0.491   0.508   0.492   0.513   0.485   0.451   0.452   0.475   0.515   0.529   0.517   0.510   0.530   0.525   0.515   0.508   0.524   0.518   0.518   0.548   0.564   0.602   0.630   0.592   0.608   0.626   0.609   0.555   0.544   0.544   0.526   0.519   0.508   0.503   0.476   0.484   0.436   0.421   0.449   0.483   0.488   0.491   0.485   0.493   0.506   0.478   0.413   0.406   0.453   0.432   0.428   0.418   0.410   0.428   0.435   0.439   0.463   0.467
    10.30    0.458   0.435   0.455   0.428   0.426   0.432   0.449   0.435   0.409   0.410   0.404   0.446   0.456   0.493   0.501   0.487   0.463   0.446   0.448   0.464   0.472   0.522   0.533   0.523   0.528   0.542   0.486   0.483   0.512   0.461   0.450   0.451   0.447   0.420   0.432   0.445   0.432   0.501   0.524   0.488   0.495   0.531   0.513   0.537   0.513   0.518   0.494   0.473   0.427   0.455   0.453   0.427   0.437   0.428   0.417   0.411   0.417   0.433   0.436   0.432   0.424   0.403   0.438   0.424   0.439   0.454   0.451   0.431   0.419   0.415   0.383   0.393   0.438   0.413   0.428   0.452   0.441   0.435   0.450   0.413   0.411   0.395   0.405   0.405   0.414   0.389   0.409   0.393   0.424   0.463   0.470   0.497   0.509   0.477   0.450   0.448   0.376   0.419   0.439   0.436   0.474   0.487   0.483   0.485   0.482   0.467   0.444   0.450   0.462   0.484   0.503   0.500   0.517   0.508   0.481   0.455   0.478   0.479   0.460   0.510   0.511   0.502   0.551   0.589   0.572   0.558   0.520   0.539   0.535   0.518   0.482   0.513   0.530   0.485   0.499   0.488   0.508   0.489   0.475   0.446   0.439   0.436   0.426   0.496   0.546   0.480   0.484   0.508   0.509   0.498   0.505   0.516   0.463   0.488   0.512   0.516   0.534   0.550   0.584   0.592   0.617   0.620   0.586   0.559   0.558   0.490   0.476   0.485   0.471   0.473   0.449   0.424   0.437   0.468   0.463   0.501   0.497   0.506   0.539   0.504   0.498   0.478   0.455   0.449   0.436   0.435   0.414   0.450   0.434   0.453   0.462   0.475   0.462
     1.00    0.477   0.439   0.454   0.478   0.421   0.435   0.420   0.388   0.389   0.397   0.429   0.448   0.490   0.492   0.492   0.474   0.513   0.463   0.495   0.465   0.509   0.490   0.527   0.496   0.494   0.479   0.480   0.481   0.518   0.513   0.501   0.454   0.453   0.458   0.452   0.439   0.464   0.498   0.496   0.507   0.518   0.495   0.513   0.524   0.539   0.525   0.532   0.493   0.458   0.451   0.463   0.453   0.423   0.420   0.410   0.420   0.446   0.428   0.447   0.449   0.439   0.433   0.439   0.448   0.457   0.477   0.461   0.434   0.421   0.413   0.400   0.422   0.408   0.422   0.418   0.447   0.428   0.445   0.418   0.409   0.420   0.425   0.402   0.394   0.388   0.373   0.394   0.424   0.440   0.465   0.470   0.482   0.493   0.475   0.449   0.432   0.406   0.425   0.399   0.455   0.464   0.474   0.470   0.464   0.455   0.463   0.439   0.468   0.453   0.467   0.483   0.501   0.516   0.504   0.496   0.482   0.468   0.480   0.486   0.500   0.496   0.527   0.547   0.560   0.566   0.543   0.531   0.510   0.539   0.502   0.490   0.467   0.474   0.490   0.489   0.471   0.514   0.468   0.486   0.510   0.445   0.450   0.455   0.483   0.511   0.492   0.469   0.517   0.501   0.519   0.521   0.529   0.492   0.483   0.489   0.506   0.524   0.526   0.548   0.568   0.593   0.609   0.569   0.525   0.536   0.511   0.492   0.480   0.482   0.474   0.449   0.414   0.448   0.476   0.464   0.486   0.523   0.527   0.520   0.538   0.533   0.506   0.493   0.445   0.422   0.429   0.400   0.426   0.418   0.453   0.437   0.477   0.474

   Height   Standard deviation at grid points for the v component:
   354.40    0.387   0.398   0.404   0.416   0.408   0.400   0.405   0.419   0.416   0.393   0.387   0.387   0.394   0.386   0.372   0.388   0.365   0.363   0.359   0.380   0.397   0.385   0.380   0.357   0.364   0.377   0.355   0.363   0.366   0.399   0.378   0.378   0.345   0.364   0.353   0.374   0.378   0.375   0.383   0.390   0.361   0.384   0.370   0.392   0.395   0.389   0.384   0.380   0.392   0.379   0.382   0.369   0.366   0.372   0.354   0.369   0.359   0.357   0.365   0.383   0.365   0.381   0.372   0.362   0.369   0.354   0.378   0.373   0.376   0.392   0.396   0.421   0.435   0.432   0.425   0.405   0.428   0.425   0.423   0.401   0.384   0.375   0.365   0.381   0.360   0.372   0.370   0.402   0.401   0.402   0.402   0.396   0.394   0.392   0.393   0.395   0.420   0.427   0.435   0.456   0.452   0.460   0.455   0.447   0.427   0.409   0.407   0.402   0.372   0.376   0.370   0.384   0.381   0.381   0.391   0.378   0.392   0.398   0.406   0.417   0.407   0.404   0.402   0.401   0.395   0.377   0.391   0.407   0.423   0.419   0.405   0.405   0.386   0.372   0.362   0.371   0.366   0.367   0.369   0.367   0.360   0.345   0.346   0.346   0.344   0.358   0.359   0.379   0.380   0.363   0.351   0.362   0.371   0.379   0.381   0.382   0.397   0.397   0.405   0.409   0.396   0.401   0.383   0.368   0.366   0.379   0.384   0.383   0.390   0.399   0.392   0.376   0.366   0.343   0.352   0.349   0.384   0.373   0.376   0.362   0.361   0.381   0.350   0.351   0.328   0.358   0.361   0.359   0.352   0.364   0.350   0.376   0.377
   345.10    0.395   0.401   0.418   0.424   0.414   0.426   0.401   0.395   0.402   0.406   0.409   0.410   0.404   0.386   0.393   0.389   0.393   0.383   0.375   0.391   0.380   0.386   0.375   0.392   0.377   0.369   0.365   0.357   0.362   0.375   0.391   0.362   0.356   0.360   0.387   0.369   0.374   0.385   0.389   0.381   0.382   0.401   0.402   0.408   0.385   0.376   0.371   0.378   0.387   0.365   0.367   0.380   0.373   0.376   0.367   0.383   0.382   0.372   0.367   0.377   0.379   0.370   0.369   0.370   0.367   0.349   0.361   0.392   0.396   0.404   0.405   0.419   0.419   0.441   0.442   0.426   0.429   0.428   0.412   0.399   0.388   0.382   0.373   0.359   0.358   0.362   0.357   0.389   0.412   0.411   0.379   0.383   0.388   0.391   0.392   0.395   0.430   0.432   0.448   0.462   0.453   0.442   0.453   0.426   0.415   0.420   0.407   0.397   0.369   0.351   0.370   0.369   0.372   0.366   0.382   0.385   0.402   0.390   0.421   0.409   0.419   0.410   0.390   0.388   0.397   0.381   0.403   0.418   0.408   0.404   0.398   0.375   0.362   0.370   0.354   0.361   0.356   0.369   0.353   0.367   0.364   0.366   0.376   0.346   0.354   0.328   0.349   0.365   0.385   0.373   0.370   0.375   0.381   0.380   0.400   0.392   0.361   0.385   0.397   0.395   0.399   0.380   0.378   0.382   0.373   0.369   0.377   0.397   0.388   0.416   0.399   0.388   0.398   0.394   0.388   0.380   0.380   0.383   0.374   0.360   0.341   0.358   0.353   0.340   0.337   0.331   0.360   0.339   0.369   0.378   0.373   0.385   0.373
   335.80    0.401   0.394   0.419   0.417   0.421   0.395   0.400   0.389   0.407   0.391   0.414   0.399   0.393   0.387   0.378   0.381   0.383   0.397   0.392   0.373   0.368   0.381   0.393   0.381   0.379   0.380   0.350   0.370   0.378   0.393   0.394   0.370   0.369   0.362   0.374   0.369   0.385   0.394   0.395   0.400   0.412   0.384   0.381   0.394   0.385   0.376   0.386   0.397   0.392   0.381   0.383   0.387   0.379   0.384   0.384   0.396   0.388   0.370   0.366   0.360   0.377   0.364   0.376   0.362   0.382   0.365   0.367   0.367   0.401   0.383   0.384   0.397   0.402   0.430   0.419   0.411   0.412   0.399   0.388   0.402   0.397   0.375   0.360   0.365   0.357   0.346   0.366   0.380   0.399   0.392   0.401   0.403   0.397   0.378   0.393   0.398   0.443   0.446   0.441   0.433   0.455   0.448   0.445   0.418   0.414   0.402   0.388   0.380   0.377   0.352   0.362   0.355   0.374   0.370   0.363   0.383   0.386   0.397   0.407   0.404   0.412   0.379   0.370   0.382   0.397   0.380   0.397   0.409   0.410   0.379   0.378   0.366   0.363   0.363   0.369   0.374   0.375   0.371   0.367   0.369   0.366   0.350   0.369   0.350   0.359   0.362   0.362   0.355   0.358   0.379   0.377   0.369   0.374   0.369   0.381   0.387   0.382   0.376   0.404   0.399   0.384   0.420   0.374   0.377   0.358   0.375   0.387   0.387   0.402   0.384   0.402   0.409   0.390   0.371   0.406   0.391   0.391   0.371   0.355   0.345   0.354   0.348   0.347   0.345   0.342   0.349   0.352   0.352   0.374   0.366   0.356   0.373   0.358
   326.50    0.411   0.402   0.413   0.401   0.395   0.397   0.405   0.400   0.394   0.393   0.415   0.409   0.412   0.394   0.397   0.380   0.392   0.395   0.400   0.366   0.353   0.388   0.409   0.390   0.398   0.384   0.366   0.388   0.383   0.385   0.369   0.390   0.389   0.387   0.366   0.394   0.374   0.394   0.402   0.402   0.397   0.393   0.373   0.364   0.373   0.354   0.382   0.394   0.372   0.375   0.362   0.374   0.405   0.398   0.403   0.395   0.394   0.367   0.374   0.385   0.368   0.376   0.370   0.382   0.395   0.368   0.366   0.377   0.397   0.407   0.396   0.406   0.418   0.413   0.418   0.405   0.411   0.392   0.404   0.398   0.394   0.367   0.360   0.364   0.368   0.361   0.372   0.364   0.385   0.377   0.385   0.395   0.380   0.396   0.388   0.418   0.441   0.463   0.455   0.438   0.458   0.432   0.444   0.429   0.405   0.401   0.377   0.376   0.353   0.367   0.344   0.350   0.381   0.378   0.383   0.382   0.389   0.406   0.420   0.420   0.392   0.377   0.359   0.374   0.368   0.400   0.395   0.426   0.397   0.393   0.385   0.379   0.365   0.357   0.385   0.376   0.374   0.378   0.372   0.374   0.359   0.347   0.335   0.346   0.353   0.378   0.360   0.364   0.372   0.373   0.413   0.379   0.386   0.366   0.362   0.371   0.367   0.382   0.399   0.406   0.408   0.412   0.394   0.404   0.378   0.370   0.381   0.372   0.394   0.373   0.389   0.397   0.385   0.401   0.399   0.382   0.381   0.364   0.369   0.338   0.334   0.336   0.340   0.351   0.357   0.365   0.357   0.371   0.377   0.343   0.361   0.375   0.363
[...]
   103.30    0.232   0.234   0.243   0.241   0.239   0.237   0.245   0.244   0.244   0.231   0.235   0.245   0.241   0.236   0.230   0.233   0.244   0.241   0.231   0.227   0.229   0.236   0.232   0.233   0.228   0.230   0.220   0.236   0.235   0.227   0.229   0.233   0.227   0.229   0.234   0.231   0.232   0.238   0.243   0.249   0.244   0.241   0.235   0.241   0.242   0.240   0.245   0.241   0.241   0.239   0.230   0.226   0.233   0.226   0.225   0.233   0.227   0.232   0.229   0.226   0.228   0.234   0.231   0.234   0.234   0.238   0.246   0.240   0.234   0.239   0.229   0.233   0.237   0.245   0.232   0.240   0.226   0.231   0.233   0.234   0.241   0.236   0.238   0.231   0.225   0.227   0.224   0.230   0.232   0.231   0.237   0.239   0.236   0.240   0.237   0.242   0.240   0.242   0.237   0.232   0.233   0.227   0.234   0.230   0.225   0.234   0.242   0.233   0.238   0.232   0.229   0.228   0.226   0.230   0.241   0.241   0.230   0.229   0.235   0.227   0.228   0.227   0.232   0.222   0.226   0.233   0.231   0.225   0.229   0.230   0.233   0.231   0.228   0.239   0.244   0.237   0.230   0.229   0.232   0.234   0.235   0.241   0.244   0.233   0.229   0.240   0.250   0.242   0.237   0.239   0.243   0.243   0.246   0.235   0.237   0.236   0.233   0.223   0.229   0.228   0.234   0.237   0.244   0.250   0.246   0.243   0.242   0.240   0.235   0.239   0.242   0.235   0.238   0.241   0.234   0.236   0.238   0.244   0.241   0.243   0.236   0.236   0.239   0.233   0.221   0.222   0.221   0.227   0.221   0.231   0.233   0.232   0.229
    94.00    0.243   0.245   0.237   0.232   0.236   0.233   0.236   0.239   0.236   0.235   0.232   0.239   0.240   0.239   0.236   0.244   0.250   0.237   0.231   0.231   0.236   0.234   0.235   0.239   0.240   0.227   0.221   0.235   0.238   0.230   0.235   0.234   0.227   0.231   0.222   0.228   0.232   0.240   0.247   0.242   0.243   0.246   0.243   0.238   0.246   0.252   0.245   0.240   0.241   0.244   0.231   0.234   0.225   0.224   0.235   0.243   0.231   0.232   0.236   0.235   0.228   0.226   0.231   0.230   0.234   0.247   0.250   0.247   0.240   0.234   0.233   0.238   0.237   0.237   0.230   0.229   0.232   0.228   0.230   0.237   0.232   0.237   0.234   0.233   0.230   0.227   0.230   0.231   0.236   0.231   0.223   0.230   0.234   0.241   0.244   0.247   0.240   0.241   0.237   0.239   0.235   0.232   0.235   0.238   0.233   0.233   0.234   0.233   0.237   0.238   0.226   0.231   0.235   0.231   0.235   0.239   0.234   0.231   0.234   0.226   0.241   0.233   0.223   0.224   0.230   0.234   0.233   0.233   0.230   0.226   0.238   0.240   0.233   0.238   0.243   0.232   0.234   0.235   0.238   0.239   0.246   0.235   0.240   0.241   0.245   0.244   0.246   0.240   0.234   0.236   0.240   0.247   0.245   0.247   0.243   0.238   0.234   0.225   0.227   0.232   0.240   0.242   0.239   0.246   0.246   0.252   0.246   0.247   0.239   0.237   0.245   0.246   0.243   0.241   0.244   0.240   0.231   0.234   0.234   0.236   0.236   0.240   0.232   0.227   0.227   0.220   0.224   0.220   0.222   0.217   0.229   0.223   0.233
    84.70    0.239   0.239   0.238   0.243   0.239   0.236   0.231   0.234   0.230   0.235   0.240   0.244   0.250   0.242   0.239   0.238   0.238   0.231   0.232   0.228   0.235   0.227   0.230   0.234   0.235   0.242   0.227   0.230   0.238   0.231   0.230   0.235   0.228   0.227   0.228   0.229   0.232   0.233   0.239   0.243   0.243   0.236   0.244   0.235   0.238   0.247   0.249   0.245   0.247   0.238   0.241   0.226   0.221   0.223   0.234   0.237   0.242   0.244   0.240   0.230   0.238   0.236   0.225   0.232   0.236   0.240   0.250   0.247   0.245   0.248   0.238   0.234   0.235   0.237   0.230   0.228   0.224   0.222   0.220   0.227   0.234   0.231   0.233   0.229   0.235   0.228   0.235   0.231   0.235   0.233   0.235   0.236   0.237   0.239   0.238   0.247   0.239   0.243   0.245   0.248   0.245   0.241   0.239   0.232   0.232   0.238   0.236   0.237   0.237   0.235   0.221   0.229   0.229   0.238   0.250   0.239   0.230   0.228   0.229   0.225   0.234   0.237   0.231   0.228   0.227   0.232   0.228   0.231   0.222   0.225   0.229   0.230   0.230   0.239   0.239   0.234   0.230   0.237   0.235   0.246   0.249   0.246   0.240   0.246   0.251   0.247   0.234   0.236   0.239   0.239   0.242   0.245   0.241   0.238   0.239   0.235   0.238   0.233   0.239   0.244   0.245   0.238   0.240   0.250   0.247   0.248   0.246   0.241   0.231   0.244   0.236   0.234   0.240   0.238   0.240   0.241   0.232   0.228   0.224   0.236   0.240   0.235   0.229   0.238   0.232   0.226   0.228   0.220   0.225   0.225   0.223   0.230   0.226
    75.40    0.239   0.235   0.234   0.239   0.234   0.233   0.225   0.233   0.234   0.232   0.237   0.242   0.240   0.241   0.246   0.243   0.237   0.231   0.237   0.233   0.231   0.234   0.229   0.233   0.246   0.240   0.235   0.235   0.239   0.235   0.233   0.236   0.229   0.225   0.230   0.232   0.233   0.234   0.235   0.239   0.225   0.231   0.239   0.237   0.237   0.247   0.258   0.243   0.243   0.238   0.229   0.226   0.221   0.234   0.235   0.234   0.237   0.237   0.231   0.234   0.241   0.234   0.231   0.236   0.237   0.239   0.244   0.246   0.241   0.242   0.236   0.242   0.236   0.236   0.232   0.235   0.231   0.223   0.217   0.230   0.239   0.231   0.230   0.236   0.235   0.232   0.236   0.237   0.245   0.237   0.236   0.233   0.234   0.238   0.249   0.249   0.245   0.248   0.239   0.246   0.247   0.241   0.244   0.239   0.232   0.238   0.245   0.243   0.238   0.233   0.226   0.229   0.229   0.238   0.245   0.232   0.234   0.224   0.237   0.232   0.230   0.231   0.235   0.233   0.234   0.235   0.232   0.232   0.231   0.231   0.228   0.232   0.228   0.228   0.235   0.237   0.245   0.237   0.237   0.244   0.240   0.241   0.238   0.241   0.245   0.240   0.233   0.240   0.239   0.242   0.238   0.236   0.241   0.239   0.243   0.238   0.243   0.239   0.239   0.237   0.237   0.238   0.245   0.245   0.244   0.239   0.244   0.239   0.244   0.243   0.242   0.239   0.236   0.240   0.239   0.242   0.244   0.237   0.231   0.235   0.240   0.222   0.230   0.228   0.226   0.228   0.230   0.225   0.225   0.225   0.233   0.228   0.232
    66.10    0.230   0.238   0.241   0.240   0.231   0.234   0.228   0.233   0.235   0.235   0.229   0.234   0.237   0.236   0.239   0.247   0.240   0.236   0.238   0.229   0.236   0.237   0.225   0.228   0.230   0.231   0.236   0.237   0.240   0.236   0.236   0.238   0.238   0.222   0.226   0.228   0.229   0.230   0.228   0.230   0.229   0.229   0.246   0.249   0.244   0.247   0.246   0.241   0.238   0.237   0.240   0.235   0.237   0.229   0.234   0.242   0.239   0.242   0.237   0.237   0.237   0.241   0.239   0.235   0.237   0.237   0.238   0.237   0.244   0.250   0.240   0.247   0.243   0.235   0.233   0.234   0.232   0.228   0.231   0.232   0.241   0.230   0.232   0.235   0.231   0.240   0.241   0.239   0.242   0.244   0.238   0.233   0.236   0.238   0.241   0.250   0.242   0.251   0.244   0.244   0.249   0.246   0.243   0.229   0.232   0.231   0.234   0.243   0.235   0.229   0.228   0.228   0.234   0.230   0.238   0.240   0.235   0.231   0.236   0.239   0.238   0.231   0.242   0.237   0.226   0.228   0.232   0.230   0.232   0.233   0.229   0.236   0.238   0.240   0.236   0.239   0.244   0.238   0.234   0.241   0.237   0.238   0.232   0.234   0.242   0.240   0.232   0.238   0.233   0.232   0.232   0.232   0.246   0.236   0.239   0.236   0.243   0.247   0.237   0.233   0.237   0.239   0.239   0.236   0.239   0.231   0.236   0.237   0.234   0.232   0.244   0.240   0.240   0.237   0.230   0.238   0.244   0.233   0.238   0.239   0.240   0.228   0.230   0.224   0.225   0.231   0.225   0.228   0.225   0.221   0.235   0.231   0.226
    56.80    0.235   0.239   0.232   0.230   0.235   0.226   0.228   0.222   0.226   0.235   0.230   0.224   0.233   0.237   0.232   0.233   0.232   0.230   0.239   0.227   0.233   0.237   0.229   0.233   0.238   0.238   0.234   0.238   0.239   0.235   0.233   0.236   0.236   0.235   0.235   0.232   0.230   0.232   0.232   0.232   0.225   0.233   0.239   0.243   0.242   0.240   0.240   0.241   0.239   0.235   0.238   0.236   0.239   0.238   0.229   0.238   0.244   0.240   0.241   0.234   0.231   0.238   0.245   0.240   0.242   0.237   0.236   0.229   0.240   0.235   0.241   0.243   0.243   0.233   0.238   0.232   0.238   0.232   0.236   0.241   0.231   0.234   0.245   0.237   0.234   0.233   0.239   0.233   0.234   0.245   0.241   0.247   0.242   0.238   0.242   0.242   0.247   0.244   0.250   0.240   0.235   0.245   0.250   0.241   0.239   0.243   0.240   0.235   0.232   0.231   0.232   0.240   0.237   0.235   0.243   0.245   0.240   0.240   0.243   0.233   0.233   0.233   0.237   0.243   0.230   0.227   0.233   0.231   0.228   0.233   0.233   0.239   0.243   0.236   0.238   0.232   0.240   0.237   0.237   0.238   0.226   0.227   0.234   0.239   0.239   0.233   0.232   0.232   0.233   0.236   0.232   0.239   0.241   0.233   0.241   0.241   0.238   0.241   0.243   0.231   0.237   0.240   0.241   0.232   0.232   0.230   0.231   0.226   0.236   0.241   0.242   0.240   0.235   0.244   0.237   0.238   0.234   0.226   0.235   0.238   0.238   0.233   0.230   0.225   0.232   0.228   0.236   0.234   0.227   0.230   0.231   0.229   0.230
    47.50    0.237   0.234   0.230   0.230   0.224   0.229   0.227   0.230   0.228   0.232   0.235   0.234   0.237   0.236   0.238   0.232   0.233   0.233   0.239   0.232   0.228   0.227   0.230   0.227   0.236   0.235   0.233   0.235   0.236   0.231   0.232   0.231   0.239   0.231   0.232   0.233   0.229   0.229   0.230   0.234   0.240   0.241   0.230   0.244   0.241   0.243   0.239   0.246   0.231   0.235   0.237   0.248   0.250   0.241   0.232   0.237   0.242   0.240   0.240   0.229   0.230   0.238   0.249   0.247   0.244   0.235   0.235   0.229   0.246   0.246   0.242   0.240   0.240   0.235   0.237   0.230   0.240   0.240   0.235   0.237   0.237   0.237   0.240   0.243   0.233   0.231   0.236   0.233   0.230   0.240   0.242   0.243   0.247   0.241   0.241   0.247   0.251   0.254   0.251   0.241   0.242   0.242   0.242   0.245   0.242   0.232   0.236   0.238   0.231   0.230   0.230   0.230   0.240   0.235   0.240   0.237   0.239   0.238   0.242   0.241   0.242   0.233   0.241   0.241   0.240   0.228   0.228   0.233   0.236   0.230   0.238   0.232   0.230   0.238   0.237   0.236   0.236   0.240   0.243   0.236   0.227   0.237   0.238   0.238   0.235   0.233   0.230   0.226   0.229   0.236   0.230   0.244   0.237   0.233   0.235   0.236   0.235   0.238   0.234   0.244   0.235   0.243   0.244   0.237   0.232   0.230   0.222   0.227   0.224   0.234   0.235   0.235   0.246   0.242   0.240   0.248   0.242   0.229   0.232   0.242   0.233   0.236   0.224   0.229   0.227   0.233   0.228   0.240   0.237   0.227   0.232   0.241   0.235
    38.20    0.240   0.241   0.238   0.243   0.233   0.228   0.232   0.230   0.233   0.227   0.232   0.238   0.228   0.237   0.234   0.233   0.228   0.226   0.231   0.230   0.227   0.228   0.226   0.231   0.237   0.231   0.236   0.232   0.232   0.240   0.239   0.239   0.237   0.231   0.232   0.241   0.233   0.239   0.235   0.233   0.236   0.239   0.237   0.239   0.241   0.245   0.237   0.240   0.231   0.238   0.245   0.251   0.254   0.249   0.248   0.245   0.235   0.234   0.233   0.233   0.231   0.239   0.246   0.239   0.240   0.235   0.243   0.233   0.238   0.240   0.235   0.244   0.231   0.235   0.234   0.239   0.228   0.235   0.231   0.239   0.235   0.233   0.234   0.241   0.241   0.236   0.235   0.241   0.237   0.239   0.241   0.241   0.240   0.236   0.237   0.238   0.240   0.251   0.250   0.245   0.237   0.241   0.243   0.245   0.245   0.242   0.231   0.235   0.238   0.234   0.239   0.232   0.236   0.239   0.249   0.245   0.243   0.247   0.243   0.237   0.241   0.235   0.231   0.240   0.236   0.232   0.231   0.238   0.234   0.227   0.233   0.238   0.236   0.238   0.247   0.242   0.239   0.238   0.239   0.243   0.239   0.237   0.239   0.231   0.232   0.234   0.240   0.230   0.231   0.232   0.239   0.240   0.237   0.238   0.240   0.242   0.240   0.235   0.228   0.229   0.241   0.238   0.241   0.243   0.231   0.230   0.229   0.232   0.220   0.227   0.230   0.236   0.244   0.241   0.236   0.243   0.234   0.229   0.241   0.237   0.230   0.238   0.230   0.223   0.225   0.229   0.241   0.236   0.231   0.236   0.227   0.235   0.241
    28.90    0.236   0.248   0.245   0.246   0.240   0.236   0.228   0.232   0.238   0.228   0.236   0.236   0.237   0.237   0.239   0.232   0.222   0.224   0.229   0.238   0.229   0.235   0.229   0.226   0.233   0.233   0.230   0.234   0.236   0.240   0.242   0.240   0.237   0.231   0.237   0.239   0.239   0.244   0.234   0.238   0.232   0.236   0.244   0.241   0.241   0.247   0.249   0.246   0.245   0.232   0.240   0.244   0.251   0.249   0.240   0.247   0.244   0.238   0.229   0.230   0.232   0.241   0.242   0.236   0.238   0.233   0.239   0.232   0.232   0.229   0.228   0.228   0.228   0.231   0.226   0.227   0.236   0.240   0.244   0.245   0.238   0.225   0.230   0.234   0.239   0.238   0.247   0.244   0.236   0.238   0.237   0.241   0.239   0.240   0.243   0.242   0.248   0.250   0.243   0.243   0.248   0.240   0.239   0.236   0.241   0.241   0.235   0.243   0.240   0.234   0.231   0.227   0.226   0.236   0.244   0.241   0.241   0.248   0.243   0.233   0.240   0.243   0.233   0.228   0.229   0.233   0.230   0.221   0.227   0.236   0.236   0.236   0.233   0.247   0.243   0.246   0.240   0.238   0.240   0.239   0.237   0.234   0.238   0.235   0.233   0.232   0.236   0.238   0.232   0.231   0.231   0.235   0.233   0.240   0.244   0.244   0.247   0.236   0.238   0.239   0.239   0.240   0.244   0.242   0.239   0.237   0.232   0.229   0.235   0.238   0.239   0.241   0.246   0.239   0.235   0.239   0.242   0.242   0.235   0.233   0.231   0.230   0.232   0.231   0.235   0.234   0.235   0.233   0.239   0.239   0.230   0.240   0.236
    19.60    0.236   0.245   0.250   0.243   0.233   0.236   0.231   0.239   0.236   0.238   0.239   0.230   0.232   0.236   0.236   0.239   0.236   0.241   0.231   0.233   0.228   0.234   0.233   0.234   0.233   0.229   0.236   0.236   0.238   0.243   0.245   0.241   0.231   0.226   0.229   0.234   0.237   0.241   0.241   0.230   0.230   0.242   0.246   0.244   0.240   0.240   0.243   0.251   0.244   0.247   0.233   0.240   0.248   0.249   0.247   0.243   0.236   0.240   0.237   0.235   0.233   0.238   0.236   0.247   0.249   0.241   0.241   0.242   0.234   0.227   0.228   0.228   0.232   0.235   0.231   0.234   0.232   0.235   0.240   0.238   0.238   0.239   0.231   0.224   0.233   0.234   0.238   0.237   0.240   0.242   0.244   0.237   0.234   0.238   0.245   0.242   0.239   0.246   0.251   0.241   0.248   0.251   0.241   0.231   0.234   0.243   0.245   0.244   0.245   0.239   0.234   0.231   0.232   0.234   0.238   0.233   0.239   0.242   0.240   0.243   0.239   0.235   0.232   0.231   0.230   0.234   0.226   0.227   0.222   0.231   0.235   0.237   0.237   0.241   0.244   0.239   0.238   0.232   0.240   0.238   0.238   0.240   0.240   0.234   0.230   0.226   0.230   0.232   0.235   0.237   0.231   0.221   0.230   0.237   0.232   0.231   0.244   0.237   0.242   0.243   0.241   0.245   0.238   0.240   0.233   0.237   0.237   0.237   0.237   0.239   0.236   0.245   0.236   0.245   0.247   0.237   0.234   0.237   0.237   0.239   0.235   0.236   0.236   0.230   0.237   0.229   0.222   0.227   0.232   0.227   0.231   0.241   0.236
    10.30    0.245   0.242   0.239   0.239   0.241   0.237   0.228   0.234   0.236   0.232   0.233   0.229   0.236   0.242   0.243   0.242   0.239   0.238   0.232   0.229   0.232   0.233   0.227   0.226   0.238   0.228   0.238   0.250   0.240   0.241   0.240   0.240   0.234   0.235   0.240   0.233   0.233   0.235   0.235   0.233   0.227   0.237   0.245   0.245   0.246   0.249   0.245   0.247   0.242   0.251   0.238   0.239   0.244   0.248   0.247   0.242   0.241   0.242   0.230   0.235   0.242   0.231   0.236   0.245   0.249   0.244   0.234   0.233   0.228   0.234   0.234   0.232   0.236   0.233   0.229   0.230   0.240   0.238   0.233   0.241   0.236   0.231   0.230   0.233   0.234   0.234   0.236   0.235   0.238   0.243   0.242   0.232   0.232   0.238   0.241   0.242   0.235   0.245   0.239   0.247   0.251   0.248   0.246   0.240   0.238   0.243   0.235   0.239   0.241   0.243   0.246   0.241   0.233   0.234   0.228   0.238   0.237   0.238   0.238   0.241   0.239   0.245   0.244   0.232   0.225   0.234   0.232   0.232   0.234   0.240   0.240   0.238   0.235   0.228   0.241   0.238   0.236   0.226   0.235   0.240   0.238   0.235   0.239   0.230   0.239   0.229   0.226   0.226   0.237   0.241   0.234   0.229   0.234   0.232   0.232   0.235   0.241   0.250   0.244   0.250   0.245   0.245   0.246   0.246   0.242   0.237   0.241   0.242   0.241   0.242   0.245   0.239   0.255   0.250   0.245   0.239   0.233   0.233   0.238   0.229   0.233   0.236   0.236   0.234   0.236   0.231   0.230   0.230   0.223   0.227   0.239   0.233   0.230
     1.00    0.237   0.234   0.238   0.240   0.234   0.233   0.233   0.240   0.239   0.234   0.234   0.235   0.234   0.238   0.241   0.235   0.238   0.244   0.241   0.234   0.234   0.239   0.243   0.233   0.228   0.228   0.241   0.242   0.244   0.242   0.243   0.239   0.242   0.239   0.234   0.239   0.237   0.244   0.237   0.233   0.232   0.240   0.247   0.246   0.251   0.246   0.245   0.242   0.242   0.238   0.241   0.241   0.241   0.241   0.242   0.245   0.239   0.240   0.247   0.242   0.241   0.243   0.236   0.240   0.240   0.238   0.242   0.240   0.229   0.235   0.232   0.234   0.234   0.237   0.239   0.244   0.243   0.242   0.231   0.232   0.235   0.234   0.229   0.235   0.233   0.235   0.239   0.243   0.232   0.244   0.236   0.227   0.233   0.236   0.233   0.236   0.240   0.247   0.236   0.235   0.245   0.244   0.240   0.250   0.240   0.243   0.238   0.240   0.243   0.242   0.240   0.235   0.227   0.229   0.222   0.225   0.231   0.230   0.236   0.239   0.242   0.241   0.236   0.230   0.229   0.238   0.232   0.235   0.236   0.235   0.234   0.233   0.229   0.231   0.236   0.233   0.235   0.236   0.241   0.240   0.242   0.234   0.243   0.239   0.234   0.235   0.225   0.230   0.232   0.236   0.227   0.229   0.236   0.238   0.230   0.229   0.238   0.244   0.240   0.242   0.242   0.244   0.239   0.244   0.237   0.238   0.242   0.253   0.250   0.248   0.244   0.243   0.244   0.251   0.254   0.244   0.244   0.233   0.238   0.231   0.239   0.237   0.235   0.235   0.232   0.229   0.227   0.232   0.234   0.229   0.232   0.236   0.238

   Mean standard deviation across all grid points:
      u component:    0.461 m/s
      v component:    0.389 m/s
      w component:    0.237 m/s


U-component (X) statistics from the interpolated hub point:

   Mean =   9.7063 m/s
   TI   =   4.2601 %


Processing complete.  2.12729E+05 CPU seconds used.
