
This summary file was generated by TurbSim (from OpenFAST-v3.5.3) on 20-Apr-2025 at 04:54:39.


Runtime Options:

-228636811  Random seed #1
    RANLUX  Type of random number generator
         F  Output binary HH turbulence parameters?
         F  Output formatted turbulence parameters?
         F  Output AeroDyn HH files?
         T  Output AeroDyn FF files?
         F  Output BLADED FF files?
         F  Output tower data?
         F  Output HAWC FF files?
         F  Output formatted FF files?
         T  Output coherent turbulence time step file?
 0 -  NONE  IEC turbulence models scaled to exact specified standard deviation


Turbine/Model Specifications:

        37  Vertical grid-point matrix dimension
        35  Horizontal grid-point matrix dimension
     0.250  Time step [seconds]
   900.000  Analysis time [seconds]
   900.000  Usable output time [seconds]
    89.350  Hub height [m]
   167.400  Grid height [m]
   158.100  Grid width [m]
     0.000  Vertical flow angle [degrees]
     0.000  Horizontal flow angle [degrees]


Meteorological Boundary Conditions:

    TIMESR  User-input time series spectral model
       N/A  IEC standard
       N/A  IEC turbulence characteristic
       N/A  IEC turbulence type
       N/A  IEC Extreme Turbulence Model (ETM) "c" parameter [m/s]
       PL   Wind profile type
    90.000  Reference height [m]
    10.000  Reference wind speed [m/s]
       N/A  Jet height [m]
     0.120  Power law exponent
     0.030  Surface roughness length [m]


Non-IEC Meteorological Boundary Conditions:

    45.000  Site latitude [degrees]
     0.050  Gradient Richardson number
     0.480  Friction or shear velocity [m/s]
       N/A  Mixing layer depth [m]
       N/A  Mean hub u'w' Reynolds stress
       N/A  Mean hub u'v' Reynolds stress
       N/A  Mean hub v'w' Reynolds stress


Spatial Coherence Models:

       IEC  u-component coherence model
       IEC  v-component coherence model
       IEC  w-component coherence model
(   12.000, 0.353E-03)  u-component coherence parameters
(   12.000, 0.353E-03)  v-component coherence parameters
(   12.000, 0.353E-03)  w-component coherence parameters
       N/A  Coherence exponent


Coherent Turbulence Scaling Parameters:

.\EventData
            Name of the path containing the coherent turbulence data files
       les  Type of coherent turbulence data files
     1.000  Disturbance scale (ratio of wave height to rotor diameter)
     0.500  Fractional location of tower centerline from right
     0.500  Fractional location of hub height from the bottom of the dataset
    30.000  Minimum start time for coherent structures [seconds]


Profiles from User-Defined Time-Series Input:

  Height   Wind Speed   Horizontal Angle   Vertical Angle
   (m)        (m/s)          (deg)              (deg)    
  ------   ----------   ----------------   --------------
   94.00      10.00          -0.63                0.00


You have requested that the following file(s) be generated:

   /kfs3/scratch/agupta/Projects/RL_Incubator/FinalRuns_Veer/Seed4/./FFSim_Seed4/Cond00_v10.0_PL0.12_TI5.0/Case1_wdirp02/Seed_1/TurbSim/HighT13.bts (AeroDyn/TurbSim full-field wind file)


Turbulence Simulation Scaling Parameter Summary:

   Turbulence model used                            =  User-input time series
   Gradient Richardson number                       =    0.050
   Monin-Obukhov (M-O) z/L parameter                =    0.067
   Monin-Obukhov (M-O) length scale                 = 1340.250 m
   Mean wind speed at hub height                    =    9.991 m/s

   Wind profile type                                =  Power law
   Power law exponent                               =    0.120
   Mean shear across rotor disk                     =    0.019 (m/s)/m
   Assumed rotor diameter                           =  158.100 m
   Surface roughness length                         =    0.030 m

   Nyquist frequency of turbulent wind field        =    2.000 Hz

   Number of time steps in the FFT                  =     3600
   Number of time steps output                      =     3600
   Number of points simulated                       =     1296


Mean Flow Angles:

   Vertical   =   0.0 degrees
   Horizontal =   0.0 degrees

Mean Wind Speed Profile:

   Height    Wind Speed   Horizontal Angle  Vertical Angle  U-comp (X)   V-comp (Y)   W-comp (Z)
     (m)        (m/s)         (degrees)       (degrees)       (m/s)        (m/s)        (m/s)   
   ------    ----------   ----------------  --------------  ----------   ----------   ----------
    168.4       10.78            0.00            0.00         10.78         0.00         0.00
    163.7       10.74            0.00            0.00         10.74         0.00         0.00
    159.1       10.71            0.00            0.00         10.71         0.00         0.00
    154.4       10.67            0.00            0.00         10.67         0.00         0.00
    149.8       10.63            0.00            0.00         10.63         0.00         0.00
    145.1       10.59            0.00            0.00         10.59         0.00         0.00
    140.5       10.55            0.00            0.00         10.55         0.00         0.00
    135.8       10.51            0.00            0.00         10.51         0.00         0.00
    131.2       10.46            0.00            0.00         10.46         0.00         0.00
    126.5       10.42            0.00            0.00         10.42         0.00         0.00
    121.9       10.37            0.00            0.00         10.37         0.00         0.00
    117.2       10.32            0.00            0.00         10.32         0.00         0.00
    112.6       10.27            0.00            0.00         10.27         0.00         0.00
    107.9       10.22            0.00            0.00         10.22         0.00         0.00
    103.3       10.17            0.00            0.00         10.17         0.00         0.00
     98.6       10.11            0.00            0.00         10.11         0.00         0.00
     94.0       10.05            0.00            0.00         10.05         0.00         0.00
     89.3        9.99            0.00            0.00          9.99         0.00         0.00
     84.7        9.93            0.00            0.00          9.93         0.00         0.00
     80.0        9.86            0.00            0.00          9.86         0.00         0.00
     75.4        9.79            0.00            0.00          9.79         0.00         0.00
     70.7        9.72            0.00            0.00          9.72         0.00         0.00
     66.1        9.64            0.00            0.00          9.64         0.00         0.00
     61.4        9.55            0.00            0.00          9.55         0.00         0.00
     56.8        9.46            0.00            0.00          9.46         0.00         0.00
     52.1        9.37            0.00            0.00          9.37         0.00         0.00
     47.5        9.26            0.00            0.00          9.26         0.00         0.00
     42.8        9.15            0.00            0.00          9.15         0.00         0.00
     38.2        9.02            0.00            0.00          9.02         0.00         0.00
     33.5        8.88            0.00            0.00          8.88         0.00         0.00
     28.9        8.73            0.00            0.00          8.73         0.00         0.00
     24.2        8.54            0.00            0.00          8.54         0.00         0.00
     19.6        8.33            0.00            0.00          8.33         0.00         0.00
     14.9        8.06            0.00            0.00          8.06         0.00         0.00
     10.3        7.71            0.00            0.00          7.71         0.00         0.00
      5.6        7.17            0.00            0.00          7.17         0.00         0.00
      1.0        5.83            0.00            0.00          5.83         0.00         0.00


Harvested Random Seeds after Generation of the Random Numbers:

     65026800 K 1
            0 K 2


Hub-Height Simulated Turbulence Statistical Summary:

   Type of Wind        Min (m/s)   Mean (m/s)    Max (m/s)  Sigma (m/s)       TI (%)
   ----------------    ---------   ----------    ---------  -----------       ------
   Longitudinal (u)         8.68         9.99        11.53        0.439        4.390
   Lateral (v)             -1.48         0.00         1.14        0.366        3.662
   Vertical (w)            -0.80        -0.00         0.83        0.240        2.404
   U component              8.68         9.99        11.53        0.439        4.390
   V component             -1.48         0.00         1.14        0.366        3.662
   W component             -0.80        -0.00         0.83        0.240        2.404
   Horizontal (U&V)         8.71        10.00        11.53        0.438        4.380
   Total                    8.72        10.00        11.53        0.438        4.380

                       Min Reynolds     Mean Reynolds    Max Reynolds    Correlation
   Product             Stress (m/s)^2   Stress (m/s)^2   Stress (m/s)^2  Coefficient
   ----------------    --------------   --------------   --------------  -----------
   u'w'                     -0.694             0.000             0.573         0.004
   u'v'                     -1.094            -0.023             0.753        -0.142
   v'w'                     -0.514            -0.000             0.525        -0.002


   Friction Velocity (Ustar)  =      0.020 m/s
   Maximum Instantaneous TKE  =      1.211 (m/s)^2
   Maximum Instantaneous CTKE =      0.560 (m/s)^2


Grid Point Variance Summary:

   Y-coord  -79.05  -74.40  -69.75  -65.10  -60.45  -55.80  -51.15  -46.50  -41.85  -37.20  -32.55  -27.90  -23.25  -18.60  -13.95   -9.30   -4.65    0.00    4.65    9.30   13.95   18.60   23.25   27.90   32.55   37.20   41.85   46.50   51.15   55.80   60.45   65.10   69.75   74.40   79.05

   Height   Standard deviation at grid points for the u component:
   168.40    0.411   0.426   0.437   0.435   0.409   0.419   0.429   0.416   0.431   0.447   0.477   0.472   0.479   0.461   0.474   0.441   0.394   0.404   0.391   0.417   0.426   0.430   0.415   0.429   0.410   0.421   0.443   0.441   0.471   0.474   0.474   0.457   0.474   0.442   0.461
   163.75    0.411   0.420   0.416   0.421   0.429   0.419   0.427   0.421   0.419   0.442   0.467   0.447   0.457   0.445   0.463   0.418   0.414   0.395   0.401   0.425   0.425   0.412   0.426   0.422   0.401   0.419   0.419   0.439   0.471   0.455   0.455   0.450   0.440   0.449   0.456
   159.10    0.414   0.421   0.436   0.439   0.448   0.423   0.423   0.431   0.427   0.445   0.461   0.447   0.425   0.433   0.444   0.411   0.403   0.386   0.414   0.414   0.381   0.403   0.404   0.420   0.405   0.426   0.415   0.413   0.457   0.441   0.439   0.445   0.416   0.429   0.450
   154.45    0.417   0.414   0.428   0.436   0.466   0.431   0.425   0.430   0.432   0.439   0.440   0.468   0.465   0.447   0.425   0.424   0.396   0.396   0.388   0.397   0.397   0.391   0.402   0.415   0.428   0.414   0.425   0.436   0.434   0.430   0.423   0.425   0.435   0.460   0.456
   149.80    0.450   0.432   0.437   0.410   0.432   0.420   0.428   0.429   0.414   0.450   0.443   0.462   0.471   0.443   0.434   0.417   0.406   0.410   0.384   0.390   0.403   0.390   0.403   0.399   0.448   0.422   0.410   0.424   0.407   0.402   0.405   0.420   0.412   0.434   0.449
   145.15    0.443   0.443   0.410   0.435   0.412   0.431   0.412   0.425   0.431   0.448   0.437   0.475   0.463   0.443   0.427   0.420   0.396   0.416   0.388   0.376   0.403   0.391   0.402   0.418   0.437   0.462   0.440   0.416   0.400   0.394   0.405   0.427   0.413   0.424   0.438
   140.50    0.436   0.413   0.403   0.406   0.409   0.409   0.434   0.422   0.426   0.422   0.425   0.451   0.468   0.458   0.458   0.429   0.410   0.424   0.408   0.408   0.415   0.433   0.420   0.452   0.454   0.450   0.433   0.402   0.400   0.409   0.424   0.411   0.414   0.406   0.442
   135.85    0.419   0.428   0.408   0.407   0.408   0.393   0.405   0.427   0.426   0.439   0.460   0.462   0.447   0.427   0.441   0.416   0.420   0.399   0.425   0.426   0.426   0.419   0.423   0.449   0.444   0.448   0.440   0.434   0.426   0.414   0.435   0.457   0.417   0.410   0.441
   131.20    0.414   0.406   0.420   0.397   0.386   0.368   0.392   0.405   0.407   0.450   0.467   0.476   0.452   0.433   0.446   0.448   0.425   0.403   0.402   0.423   0.398   0.405   0.419   0.434   0.452   0.472   0.445   0.444   0.428   0.427   0.444   0.449   0.438   0.434   0.421
   126.55    0.435   0.420   0.425   0.410   0.406   0.411   0.404   0.413   0.434   0.460   0.489   0.482   0.465   0.445   0.449   0.441   0.436   0.396   0.402   0.404   0.411   0.402   0.382   0.434   0.455   0.463   0.436   0.427   0.444   0.432   0.429   0.435   0.426   0.432   0.416
   121.90    0.427   0.429   0.452   0.419   0.413   0.428   0.415   0.434   0.466   0.490   0.464   0.479   0.479   0.465   0.440   0.429   0.418   0.426   0.420   0.419   0.396   0.443   0.440   0.430   0.437   0.455   0.451   0.439   0.432   0.428   0.421   0.434   0.417   0.413   0.430
   117.25    0.399   0.416   0.429   0.433   0.404   0.436   0.411   0.457   0.472   0.460   0.458   0.459   0.477   0.469   0.444   0.421   0.412   0.425   0.435   0.413   0.398   0.423   0.431   0.417   0.439   0.442   0.436   0.413   0.425   0.411   0.420   0.442   0.437   0.444   0.447
   112.60    0.415   0.404   0.420   0.433   0.430   0.432   0.446   0.467   0.456   0.469   0.453   0.463   0.491   0.456   0.459   0.447   0.425   0.421   0.425   0.404   0.396   0.415   0.413   0.418   0.426   0.443   0.427   0.407   0.414   0.396   0.401   0.422   0.422   0.445   0.422
   107.95    0.441   0.446   0.444   0.430   0.427   0.432   0.465   0.475   0.480   0.478   0.474   0.482   0.475   0.475   0.497   0.451   0.466   0.443   0.412   0.393   0.419   0.431   0.422   0.433   0.441   0.417   0.401   0.406   0.417   0.393   0.393   0.442   0.418   0.442   0.432
   103.30    0.435   0.430   0.421   0.444   0.447   0.436   0.447   0.486   0.463   0.451   0.458   0.501   0.478   0.490   0.507   0.455   0.455   0.424   0.422   0.406   0.403   0.407   0.411   0.412   0.426   0.403   0.382   0.385   0.388   0.383   0.404   0.417   0.427   0.421   0.456
    98.65    0.442   0.442   0.465   0.479   0.466   0.447   0.445   0.475   0.462   0.470   0.475   0.505   0.509   0.525   0.521   0.493   0.446   0.432   0.431   0.435   0.391   0.382   0.380   0.404   0.395   0.415   0.419   0.404   0.391   0.357   0.374   0.377   0.399   0.415   0.424
    94.00    0.459   0.479   0.476   0.489   0.466   0.500   0.466   0.472   0.446   0.452   0.501   0.501   0.520   0.524   0.508   0.493   0.471   0.447   0.435   0.424   0.428   0.404   0.365   0.386   0.410   0.404   0.440   0.420   0.400   0.379   0.378   0.374   0.405   0.407   0.424
    89.35    0.439   0.463   0.463   0.470   0.470   0.480   0.478   0.478   0.468   0.486   0.507   0.517   0.519   0.513   0.515   0.498   0.461   0.439   0.433   0.431   0.436   0.415   0.386   0.404   0.417   0.407   0.431   0.418   0.401   0.382   0.412   0.401   0.409   0.394   0.411
    84.70    0.438   0.428   0.466   0.490   0.482   0.504   0.496   0.469   0.478   0.486   0.512   0.518   0.522   0.510   0.493   0.509   0.486   0.481   0.472   0.453   0.448   0.435   0.422   0.412   0.401   0.435   0.434   0.421   0.416   0.411   0.390   0.397   0.392   0.404   0.401
    80.05    0.431   0.443   0.438   0.466   0.466   0.468   0.464   0.501   0.488   0.535   0.520   0.514   0.531   0.553   0.527   0.504   0.484   0.468   0.463   0.428   0.422   0.447   0.457   0.412   0.420   0.423   0.402   0.412   0.394   0.404   0.395   0.392   0.389   0.416   0.445
    75.40    0.468   0.448   0.446   0.445   0.458   0.486   0.492   0.489   0.506   0.530   0.531   0.522   0.563   0.558   0.522   0.501   0.466   0.494   0.494   0.487   0.479   0.470   0.470   0.447   0.425   0.407   0.413   0.410   0.394   0.394   0.398   0.400   0.408   0.425   0.428
    70.75    0.467   0.481   0.497   0.475   0.462   0.487   0.474   0.471   0.481   0.497   0.515   0.526   0.549   0.564   0.523   0.520   0.494   0.499   0.498   0.493   0.506   0.507   0.490   0.438   0.421   0.411   0.393   0.409   0.396   0.424   0.397   0.411   0.421   0.416   0.421
    66.10    0.480   0.493   0.459   0.472   0.473   0.451   0.463   0.452   0.475   0.469   0.491   0.513   0.531   0.545   0.528   0.514   0.513   0.481   0.478   0.491   0.517   0.510   0.512   0.453   0.437   0.413   0.396   0.412   0.394   0.399   0.424   0.412   0.437   0.423   0.408
    61.45    0.497   0.477   0.466   0.471   0.455   0.430   0.422   0.446   0.467   0.467   0.445   0.484   0.496   0.486   0.495   0.491   0.505   0.500   0.507   0.463   0.476   0.471   0.475   0.453   0.443   0.417   0.409   0.425   0.418   0.408   0.421   0.444   0.436   0.438   0.428
    56.80    0.481   0.478   0.461   0.459   0.455   0.455   0.436   0.455   0.466   0.463   0.458   0.461   0.463   0.473   0.467   0.493   0.495   0.493   0.479   0.466   0.455   0.460   0.457   0.430   0.450   0.447   0.439   0.470   0.457   0.467   0.427   0.451   0.442   0.430   0.419
    52.15    0.474   0.480   0.467   0.454   0.441   0.451   0.433   0.444   0.431   0.434   0.435   0.399   0.434   0.445   0.476   0.493   0.487   0.484   0.486   0.463   0.476   0.437   0.427   0.425   0.412   0.407   0.438   0.465   0.448   0.463   0.457   0.427   0.425   0.421   0.420
    47.50    0.484   0.491   0.486   0.478   0.443   0.443   0.427   0.427   0.422   0.409   0.401   0.428   0.422   0.431   0.463   0.473   0.476   0.493   0.476   0.469   0.470   0.436   0.444   0.423   0.420   0.423   0.447   0.449   0.449   0.462   0.457   0.429   0.422   0.431   0.434
    42.85    0.493   0.493   0.480   0.482   0.458   0.467   0.441   0.400   0.416   0.409   0.394   0.412   0.417   0.414   0.432   0.465   0.469   0.463   0.474   0.476   0.449   0.451   0.426   0.422   0.427   0.442   0.418   0.434   0.455   0.424   0.424   0.443   0.436   0.431   0.424
    38.20    0.484   0.500   0.483   0.487   0.472   0.450   0.438   0.415   0.395   0.401   0.389   0.394   0.413   0.429   0.442   0.447   0.420   0.440   0.437   0.440   0.429   0.433   0.441   0.452   0.416   0.429   0.445   0.452   0.456   0.438   0.419   0.418   0.410   0.431   0.432
    33.55    0.519   0.490   0.487   0.479   0.463   0.450   0.438   0.438   0.428   0.408   0.410   0.411   0.395   0.423   0.449   0.421   0.421   0.439   0.407   0.390   0.409   0.431   0.417   0.451   0.448   0.452   0.452   0.464   0.441   0.430   0.426   0.407   0.418   0.424   0.415
    28.90    0.501   0.498   0.476   0.476   0.477   0.457   0.425   0.427   0.422   0.421   0.401   0.422   0.449   0.446   0.437   0.411   0.406   0.410   0.410   0.384   0.408   0.404   0.382   0.413   0.432   0.418   0.450   0.458   0.444   0.437   0.425   0.415   0.417   0.417   0.409
    24.25    0.493   0.497   0.475   0.467   0.452   0.450   0.434   0.444   0.427   0.430   0.436   0.447   0.443   0.424   0.409   0.409   0.382   0.385   0.381   0.389   0.380   0.383   0.389   0.392   0.418   0.442   0.449   0.447   0.430   0.457   0.410   0.408   0.410   0.428   0.418
    19.60    0.482   0.481   0.466   0.490   0.460   0.449   0.436   0.445   0.425   0.393   0.434   0.429   0.413   0.414   0.390   0.396   0.402   0.367   0.363   0.371   0.390   0.394   0.387   0.413   0.419   0.447   0.465   0.450   0.442   0.443   0.432   0.416   0.427   0.425   0.404
    14.95    0.494   0.495   0.500   0.495   0.485   0.464   0.449   0.454   0.453   0.429   0.437   0.436   0.420   0.414   0.385   0.377   0.384   0.366   0.379   0.400   0.373   0.392   0.404   0.427   0.437   0.453   0.426   0.427   0.443   0.449   0.441   0.429   0.430   0.421   0.419
    10.30    0.483   0.477   0.477   0.484   0.500   0.476   0.457   0.459   0.447   0.439   0.407   0.424   0.431   0.422   0.392   0.399   0.366   0.396   0.396   0.390   0.384   0.392   0.405   0.424   0.435   0.452   0.443   0.415   0.441   0.432   0.416   0.403   0.451   0.424   0.434
     5.65    0.449   0.477   0.511   0.481   0.482   0.469   0.426   0.430   0.420   0.406   0.414   0.416   0.427   0.424   0.397   0.404   0.411   0.414   0.373   0.390   0.395   0.362   0.382   0.440   0.417   0.453   0.447   0.412   0.419   0.404   0.420   0.410   0.441   0.443   0.416
     1.00    0.474   0.475   0.507   0.476   0.454   0.441   0.433   0.418   0.415   0.420   0.397   0.400   0.395   0.402   0.397   0.401   0.426   0.418   0.382   0.405   0.387   0.385   0.383   0.424   0.416   0.435   0.420   0.401   0.419   0.412   0.414   0.451   0.426   0.427   0.435

   Height   Standard deviation at grid points for the v component:
   168.40    0.400   0.390   0.404   0.407   0.420   0.420   0.411   0.399   0.394   0.411   0.402   0.415   0.425   0.393   0.367   0.381   0.395   0.396   0.386   0.375   0.387   0.400   0.390   0.367   0.376   0.402   0.438   0.427   0.418   0.431   0.417   0.422   0.416   0.417   0.418
   163.75    0.371   0.385   0.384   0.423   0.424   0.416   0.416   0.392   0.384   0.399   0.398   0.419   0.410   0.403   0.391   0.377   0.372   0.366   0.372   0.376   0.370   0.394   0.384   0.378   0.378   0.421   0.395   0.417   0.422   0.410   0.410   0.428   0.419   0.401   0.401
   159.10    0.387   0.379   0.381   0.397   0.397   0.412   0.399   0.407   0.400   0.407   0.371   0.394   0.408   0.401   0.409   0.398   0.398   0.379   0.355   0.379   0.366   0.366   0.386   0.384   0.379   0.410   0.423   0.410   0.420   0.410   0.413   0.402   0.396   0.404   0.380
   154.45    0.390   0.415   0.388   0.379   0.376   0.387   0.371   0.400   0.400   0.393   0.387   0.403   0.387   0.397   0.402   0.395   0.378   0.374   0.351   0.372   0.368   0.373   0.375   0.400   0.409   0.433   0.433   0.429   0.433   0.412   0.400   0.417   0.412   0.391   0.365
   149.80    0.415   0.406   0.379   0.389   0.398   0.381   0.367   0.395   0.412   0.399   0.394   0.418   0.406   0.428   0.425   0.416   0.388   0.374   0.382   0.349   0.372   0.370   0.385   0.386   0.409   0.420   0.438   0.445   0.424   0.418   0.388   0.389   0.374   0.388   0.369
   145.15    0.388   0.396   0.396   0.389   0.417   0.377   0.395   0.390   0.401   0.420   0.408   0.425   0.420   0.428   0.434   0.419   0.413   0.361   0.353   0.360   0.362   0.364   0.374   0.381   0.384   0.407   0.396   0.420   0.423   0.429   0.401   0.399   0.397   0.379   0.373
   140.50    0.379   0.391   0.401   0.417   0.400   0.373   0.399   0.393   0.410   0.419   0.421   0.431   0.440   0.429   0.442   0.435   0.423   0.402   0.385   0.366   0.382   0.386   0.399   0.398   0.379   0.391   0.391   0.399   0.394   0.400   0.410   0.418   0.403   0.396   0.389
   135.85    0.366   0.393   0.404   0.413   0.398   0.365   0.398   0.386   0.423   0.440   0.439   0.439   0.424   0.422   0.417   0.416   0.431   0.409   0.387   0.415   0.405   0.397   0.394   0.384   0.378   0.364   0.394   0.404   0.395   0.389   0.412   0.406   0.402   0.390   0.384
   131.20    0.387   0.385   0.404   0.409   0.412   0.378   0.384   0.389   0.399   0.414   0.428   0.433   0.435   0.439   0.420   0.429   0.411   0.422   0.397   0.414   0.405   0.399   0.389   0.374   0.381   0.388   0.387   0.387   0.394   0.387   0.399   0.410   0.408   0.398   0.398
   126.55    0.389   0.377   0.397   0.393   0.392   0.409   0.402   0.406   0.407   0.402   0.395   0.417   0.413   0.424   0.419   0.414   0.420   0.415   0.389   0.409   0.407   0.386   0.373   0.378   0.407   0.408   0.401   0.391   0.395   0.389   0.389   0.391   0.394   0.399   0.401
   121.90    0.356   0.355   0.392   0.400   0.371   0.402   0.409   0.422   0.413   0.381   0.381   0.406   0.405   0.417   0.413   0.417   0.415   0.420   0.405   0.430   0.422   0.396   0.368   0.370   0.383   0.410   0.407   0.394   0.397   0.399   0.393   0.407   0.401   0.383   0.391
   117.25    0.349   0.364   0.369   0.372   0.394   0.384   0.396   0.399   0.389   0.385   0.391   0.382   0.409   0.430   0.447   0.431   0.424   0.428   0.412   0.394   0.400   0.369   0.385   0.372   0.365   0.389   0.402   0.392   0.398   0.388   0.393   0.409   0.403   0.386   0.395
   112.60    0.373   0.383   0.351   0.374   0.363   0.359   0.370   0.359   0.357   0.388   0.376   0.396   0.410   0.427   0.411   0.425   0.438   0.399   0.391   0.396   0.395   0.379   0.381   0.384   0.360   0.386   0.385   0.396   0.390   0.377   0.392   0.414   0.420   0.416   0.386
   107.95    0.374   0.370   0.360   0.358   0.352   0.358   0.371   0.349   0.337   0.352   0.381   0.408   0.422   0.406   0.376   0.399   0.402   0.391   0.381   0.366   0.369   0.381   0.381   0.386   0.391   0.379   0.401   0.395   0.403   0.393   0.381   0.412   0.434   0.420   0.407
   103.30    0.371   0.379   0.365   0.368   0.357   0.384   0.362   0.366   0.359   0.350   0.377   0.407   0.391   0.378   0.380   0.398   0.388   0.372   0.377   0.371   0.366   0.365   0.386   0.408   0.400   0.401   0.402   0.400   0.402   0.401   0.377   0.379   0.413   0.431   0.416
    98.65    0.377   0.375   0.359   0.373   0.369   0.402   0.376   0.375   0.356   0.369   0.380   0.400   0.380   0.383   0.383   0.384   0.375   0.389   0.395   0.395   0.365   0.367   0.388   0.397   0.405   0.396   0.402   0.395   0.398   0.402   0.384   0.381   0.385   0.408   0.406
    94.00    0.351   0.358   0.361   0.350   0.368   0.377   0.389   0.384   0.370   0.357   0.387   0.400   0.374   0.381   0.392   0.388   0.364   0.386   0.409   0.389   0.369   0.387   0.377   0.379   0.379   0.388   0.389   0.362   0.381   0.376   0.383   0.377   0.407   0.416   0.417
    89.35    0.357   0.347   0.347   0.364   0.372   0.381   0.371   0.372   0.388   0.359   0.372   0.376   0.369   0.386   0.388   0.379   0.396   0.366   0.374   0.379   0.374   0.383   0.376   0.399   0.393   0.362   0.358   0.346   0.364   0.373   0.384   0.390   0.380   0.382   0.383
    84.70    0.357   0.348   0.359   0.369   0.377   0.386   0.371   0.372   0.377   0.362   0.360   0.366   0.378   0.374   0.393   0.374   0.395   0.387   0.371   0.371   0.381   0.370   0.367   0.369   0.359   0.369   0.349   0.360   0.353   0.366   0.376   0.384   0.378   0.380   0.384
    80.05    0.360   0.346   0.354   0.352   0.370   0.378   0.371   0.374   0.379   0.385   0.377   0.367   0.384   0.391   0.392   0.378   0.366   0.385   0.387   0.388   0.363   0.363   0.373   0.360   0.356   0.349   0.368   0.372   0.368   0.384   0.377   0.398   0.377   0.377   0.398
    75.40    0.382   0.378   0.351   0.355   0.374   0.386   0.363   0.354   0.364   0.386   0.368   0.373   0.392   0.395   0.388   0.380   0.388   0.394   0.416   0.391   0.372   0.364   0.391   0.379   0.357   0.363   0.387   0.365   0.367   0.365   0.367   0.393   0.381   0.397   0.390
    70.75    0.378   0.362   0.358   0.358   0.361   0.346   0.375   0.375   0.372   0.385   0.386   0.381   0.399   0.395   0.383   0.379   0.409   0.396   0.426   0.406   0.386   0.361   0.375   0.368   0.363   0.372   0.397   0.389   0.370   0.387   0.404   0.381   0.379   0.400   0.401
    66.10    0.408   0.391   0.378   0.355   0.347   0.367   0.355   0.383   0.409   0.395   0.375   0.374   0.369   0.365   0.386   0.370   0.385   0.390   0.403   0.393   0.384   0.388   0.386   0.379   0.367   0.366   0.380   0.394   0.396   0.398   0.404   0.385   0.382   0.392   0.427
    61.45    0.390   0.390   0.374   0.363   0.347   0.362   0.374   0.386   0.398   0.387   0.374   0.358   0.368   0.372   0.370   0.374   0.370   0.391   0.396   0.387   0.380   0.372   0.373   0.372   0.367   0.362   0.376   0.391   0.405   0.423   0.408   0.406   0.394   0.419   0.410
    56.80    0.406   0.387   0.394   0.372   0.347   0.352   0.347   0.367   0.378   0.373   0.359   0.346   0.366   0.367   0.380   0.371   0.366   0.377   0.380   0.369   0.385   0.377   0.370   0.383   0.361   0.376   0.372   0.368   0.405   0.406   0.404   0.428   0.417   0.423   0.404
    52.15    0.385   0.382   0.368   0.377   0.385   0.372   0.357   0.363   0.358   0.360   0.367   0.347   0.365   0.367   0.358   0.368   0.393   0.368   0.381   0.397   0.411   0.378   0.361   0.358   0.368   0.383   0.383   0.357   0.380   0.405   0.417   0.431   0.430   0.430   0.422
    47.50    0.386   0.385   0.364   0.382   0.403   0.375   0.359   0.350   0.368   0.364   0.350   0.360   0.371   0.374   0.383   0.376   0.387   0.380   0.363   0.377   0.379   0.369   0.342   0.330   0.361   0.366   0.379   0.370   0.402   0.403   0.411   0.406   0.412   0.424   0.392
    42.85    0.387   0.375   0.373   0.385   0.381   0.369   0.378   0.360   0.363   0.338   0.352   0.353   0.374   0.378   0.371   0.381   0.363   0.362   0.363   0.355   0.351   0.346   0.338   0.343   0.362   0.357   0.354   0.376   0.416   0.411   0.397   0.416   0.413   0.390   0.390
    38.20    0.361   0.372   0.371   0.386   0.373   0.372   0.378   0.352   0.359   0.338   0.348   0.346   0.370   0.377   0.379   0.366   0.378   0.351   0.340   0.336   0.336   0.362   0.367   0.347   0.362   0.368   0.358   0.390   0.401   0.390   0.396   0.398   0.394   0.391   0.415
    33.55    0.387   0.383   0.379   0.378   0.385   0.410   0.382   0.386   0.387   0.354   0.344   0.355   0.376   0.366   0.368   0.345   0.347   0.341   0.331   0.345   0.359   0.348   0.368   0.364   0.353   0.365   0.369   0.402   0.385   0.382   0.382   0.402   0.400   0.387   0.393
    28.90    0.383   0.373   0.362   0.361   0.396   0.416   0.417   0.402   0.406   0.367   0.367   0.351   0.348   0.360   0.353   0.356   0.333   0.314   0.328   0.343   0.348   0.375   0.373   0.373   0.382   0.366   0.376   0.385   0.375   0.363   0.387   0.395   0.397   0.378   0.397
    24.25    0.373   0.368   0.386   0.363   0.386   0.412   0.425   0.423   0.405   0.369   0.367   0.344   0.343   0.362   0.335   0.339   0.350   0.318   0.323   0.325   0.331   0.357   0.364   0.375   0.392   0.388   0.393   0.401   0.369   0.383   0.382   0.388   0.390   0.381   0.391
    19.60    0.375   0.375   0.370   0.365   0.384   0.393   0.396   0.428   0.399   0.364   0.362   0.362   0.363   0.371   0.350   0.331   0.329   0.336   0.334   0.334   0.329   0.351   0.374   0.384   0.396   0.391   0.397   0.392   0.363   0.378   0.372   0.370   0.374   0.399   0.391
    14.95    0.361   0.375   0.377   0.381   0.396   0.392   0.392   0.401   0.411   0.382   0.363   0.359   0.370   0.375   0.360   0.339   0.330   0.339   0.346   0.353   0.342   0.353   0.368   0.368   0.379   0.381   0.383   0.372   0.380   0.394   0.365   0.360   0.380   0.406   0.396
    10.30    0.385   0.394   0.390   0.390   0.402   0.394   0.414   0.391   0.387   0.392   0.351   0.345   0.363   0.344   0.362   0.386   0.360   0.332   0.355   0.349   0.337   0.342   0.389   0.371   0.383   0.382   0.381   0.366   0.375   0.378   0.382   0.392   0.389   0.404   0.393
     5.65    0.391   0.397   0.396   0.404   0.407   0.400   0.417   0.390   0.372   0.379   0.369   0.366   0.365   0.372   0.372   0.398   0.353   0.344   0.365   0.374   0.374   0.393   0.404   0.376   0.388   0.369   0.374   0.372   0.385   0.395   0.383   0.408   0.412   0.416   0.378
     1.00    0.372   0.394   0.384   0.387   0.385   0.407   0.408   0.385   0.367   0.388   0.386   0.363   0.359   0.362   0.380   0.383   0.367   0.370   0.389   0.387   0.401   0.374   0.388   0.386   0.387   0.384   0.380   0.395   0.381   0.377   0.389   0.408   0.397   0.404   0.395

   Height   Standard deviation at grid points for the w component:
   168.40    0.233   0.227   0.231   0.233   0.229   0.235   0.241   0.235   0.235   0.235   0.230   0.236   0.242   0.240   0.243   0.246   0.254   0.244   0.248   0.250   0.248   0.247   0.237   0.234   0.235   0.244   0.230   0.230   0.229   0.237   0.238   0.233   0.228   0.240   0.243
   163.75    0.230   0.226   0.232   0.228   0.222   0.230   0.234   0.227   0.230   0.226   0.240   0.231   0.242   0.244   0.248   0.239   0.248   0.254   0.246   0.248   0.237   0.237   0.246   0.243   0.236   0.236   0.246   0.240   0.237   0.233   0.238   0.233   0.241   0.246   0.246
   159.10    0.235   0.232   0.233   0.237   0.228   0.231   0.234   0.230   0.239   0.245   0.242   0.230   0.245   0.248   0.246   0.252   0.238   0.245   0.247   0.245   0.244   0.244   0.242   0.241   0.240   0.231   0.244   0.243   0.224   0.228   0.237   0.217   0.241   0.248   0.247
   154.45    0.233   0.229   0.229   0.236   0.236   0.234   0.237   0.241   0.238   0.234   0.233   0.232   0.235   0.243   0.237   0.242   0.252   0.246   0.254   0.233   0.247   0.238   0.236   0.242   0.234   0.239   0.237   0.235   0.236   0.235   0.224   0.234   0.244   0.249   0.250
   149.80    0.233   0.229   0.221   0.237   0.235   0.231   0.227   0.223   0.242   0.242   0.238   0.238   0.230   0.236   0.242   0.252   0.257   0.250   0.255   0.240   0.240   0.241   0.243   0.241   0.240   0.236   0.229   0.231   0.237   0.240   0.227   0.226   0.230   0.240   0.231
   145.15    0.236   0.229   0.233   0.239   0.236   0.234   0.230   0.239   0.237   0.237   0.236   0.232   0.237   0.252   0.252   0.254   0.258   0.246   0.238   0.237   0.234   0.247   0.244   0.236   0.234   0.247   0.238   0.239   0.235   0.228   0.233   0.233   0.237   0.234   0.228
   140.50    0.231   0.238   0.234   0.244   0.240   0.234   0.233   0.234   0.236   0.229   0.225   0.236   0.234   0.247   0.247   0.244   0.255   0.246   0.235   0.252   0.242   0.240   0.250   0.235   0.241   0.244   0.243   0.246   0.244   0.233   0.233   0.240   0.240   0.246   0.231
   135.85    0.232   0.237   0.243   0.243   0.243   0.235   0.235   0.225   0.225   0.219   0.231   0.239   0.239   0.233   0.237   0.254   0.244   0.250   0.246   0.256   0.254   0.253   0.248   0.238   0.235   0.242   0.238   0.239   0.241   0.232   0.242   0.238   0.230   0.234   0.234
   131.20    0.237   0.253   0.232   0.237   0.232   0.235   0.234   0.232   0.227   0.232   0.232   0.235   0.238   0.237   0.243   0.250   0.254   0.249   0.255   0.257   0.248   0.259   0.251   0.245   0.238   0.232   0.239   0.243   0.236   0.235   0.236   0.243   0.244   0.227   0.232
   126.55    0.246   0.239   0.241   0.248   0.236   0.224   0.230   0.226   0.234   0.231   0.235   0.243   0.230   0.238   0.253   0.241   0.252   0.260   0.256   0.243   0.253   0.250   0.242   0.243   0.242   0.232   0.237   0.240   0.234   0.224   0.232   0.233   0.238   0.237   0.226
   121.90    0.238   0.240   0.239   0.232   0.236   0.238   0.230   0.227   0.236   0.234   0.236   0.236   0.243   0.247   0.242   0.242   0.243   0.251   0.245   0.245   0.251   0.251   0.245   0.241   0.246   0.239   0.237   0.247   0.239   0.239   0.239   0.230   0.228   0.224   0.225
   117.25    0.234   0.237   0.236   0.234   0.238   0.239   0.235   0.237   0.232   0.235   0.234   0.234   0.239   0.241   0.252   0.255   0.252   0.242   0.237   0.250   0.252   0.253   0.252   0.254   0.250   0.247   0.238   0.243   0.228   0.227   0.233   0.234   0.233   0.223   0.228
   112.60    0.226   0.228   0.229   0.232   0.241   0.239   0.235   0.228   0.235   0.236   0.233   0.225   0.250   0.257   0.264   0.258   0.257   0.242   0.248   0.260   0.254   0.257   0.250   0.253   0.266   0.246   0.247   0.230   0.232   0.231   0.234   0.228   0.232   0.237   0.226
   107.95    0.229   0.223   0.228   0.234   0.242   0.237   0.237   0.230   0.227   0.236   0.225   0.233   0.236   0.250   0.255   0.258   0.248   0.251   0.253   0.268   0.265   0.250   0.246   0.249   0.250   0.251   0.247   0.232   0.236   0.225   0.224   0.233   0.234   0.237   0.236
   103.30    0.229   0.231   0.227   0.241   0.240   0.241   0.239   0.236   0.236   0.226   0.227   0.235   0.237   0.238   0.244   0.250   0.250   0.249   0.247   0.249   0.244   0.246   0.246   0.248   0.239   0.234   0.232   0.222   0.228   0.233   0.221   0.225   0.228   0.245   0.254
    98.65    0.228   0.226   0.228   0.240   0.240   0.233   0.246   0.245   0.232   0.225   0.228   0.245   0.242   0.240   0.237   0.244   0.238   0.245   0.243   0.249   0.250   0.246   0.243   0.250   0.234   0.234   0.237   0.229   0.230   0.232   0.229   0.217   0.238   0.246   0.245
    94.00    0.228   0.227   0.222   0.231   0.228   0.238   0.241   0.239   0.226   0.215   0.229   0.229   0.243   0.240   0.245   0.243   0.242   0.240   0.245   0.251   0.237   0.237   0.240   0.245   0.240   0.227   0.237   0.235   0.228   0.236   0.233   0.233   0.242   0.239   0.250
    89.35    0.231   0.220   0.224   0.229   0.234   0.239   0.234   0.235   0.225   0.226   0.243   0.253   0.240   0.244   0.247   0.247   0.241   0.240   0.238   0.244   0.242   0.235   0.241   0.236   0.240   0.239   0.227   0.233   0.239   0.239   0.237   0.242   0.246   0.258   0.245
    84.70    0.226   0.221   0.231   0.235   0.234   0.225   0.240   0.222   0.224   0.234   0.233   0.235   0.242   0.247   0.258   0.256   0.254   0.248   0.229   0.233   0.231   0.234   0.228   0.233   0.240   0.239   0.242   0.230   0.228   0.240   0.239   0.247   0.249   0.257   0.254
    80.05    0.228   0.230   0.227   0.245   0.234   0.226   0.233   0.229   0.223   0.230   0.230   0.237   0.248   0.247   0.253   0.250   0.253   0.232   0.236   0.233   0.231   0.227   0.222   0.231   0.230   0.238   0.233   0.230   0.231   0.242   0.244   0.241   0.256   0.263   0.256
    75.40    0.241   0.245   0.243   0.240   0.235   0.230   0.224   0.229   0.224   0.223   0.221   0.233   0.244   0.249   0.247   0.248   0.240   0.234   0.239   0.229   0.223   0.223   0.216   0.224   0.222   0.236   0.227   0.239   0.228   0.241   0.249   0.245   0.258   0.251   0.262
    70.75    0.237   0.238   0.234   0.237   0.238   0.236   0.234   0.218   0.223   0.230   0.235   0.241   0.235   0.241   0.240   0.241   0.239   0.243   0.242   0.238   0.233   0.233   0.230   0.228   0.227   0.223   0.238   0.236   0.232   0.243   0.243   0.246   0.250   0.243   0.258
    66.10    0.246   0.240   0.242   0.245   0.228   0.227   0.232   0.227   0.234   0.234   0.230   0.232   0.231   0.236   0.236   0.241   0.244   0.248   0.243   0.240   0.234   0.234   0.231   0.233   0.220   0.225   0.228   0.234   0.234   0.242   0.249   0.243   0.244   0.257   0.251
    61.45    0.245   0.232   0.240   0.231   0.228   0.221   0.226   0.219   0.225   0.227   0.234   0.237   0.245   0.251   0.232   0.234   0.246   0.255   0.253   0.242   0.227   0.236   0.230   0.224   0.226   0.227   0.233   0.241   0.249   0.242   0.245   0.239   0.243   0.250   0.243
    56.80    0.237   0.231   0.231   0.226   0.235   0.228   0.231   0.236   0.229   0.227   0.243   0.243   0.241   0.252   0.242   0.233   0.241   0.242   0.244   0.240   0.238   0.240   0.237   0.235   0.231   0.222   0.225   0.236   0.246   0.234   0.242   0.230   0.232   0.242   0.247
    52.15    0.233   0.241   0.244   0.234   0.239   0.225   0.218   0.228   0.236   0.238   0.236   0.244   0.239   0.242   0.251   0.235   0.232   0.238   0.245   0.239   0.244   0.240   0.235   0.240   0.239   0.228   0.230   0.236   0.246   0.236   0.241   0.236   0.238   0.238   0.235
    47.50    0.241   0.238   0.236   0.232   0.233   0.229   0.221   0.234   0.238   0.235   0.236   0.246   0.232   0.235   0.251   0.241   0.229   0.238   0.239   0.241   0.239   0.248   0.239   0.241   0.239   0.241   0.246   0.236   0.246   0.247   0.244   0.239   0.238   0.239   0.228
    42.85    0.236   0.233   0.236   0.229   0.229   0.229   0.225   0.224   0.229   0.224   0.228   0.235   0.225   0.232   0.247   0.240   0.243   0.247   0.238   0.237   0.240   0.240   0.239   0.241   0.243   0.239   0.248   0.244   0.254   0.250   0.243   0.239   0.239   0.221   0.229
    38.20    0.233   0.237   0.234   0.245   0.225   0.231   0.223   0.220   0.224   0.226   0.228   0.227   0.234   0.234   0.247   0.236   0.243   0.253   0.239   0.244   0.233   0.241   0.239   0.245   0.245   0.249   0.248   0.254   0.252   0.254   0.260   0.248   0.233   0.224   0.234
    33.55    0.232   0.234   0.231   0.238   0.238   0.231   0.231   0.219   0.218   0.217   0.228   0.223   0.241   0.243   0.247   0.237   0.252   0.243   0.238   0.248   0.243   0.245   0.246   0.247   0.256   0.260   0.257   0.256   0.250   0.254   0.261   0.236   0.228   0.223   0.232
    28.90    0.223   0.231   0.233   0.232   0.224   0.234   0.224   0.221   0.229   0.229   0.237   0.225   0.232   0.241   0.241   0.245   0.233   0.244   0.243   0.245   0.243   0.253   0.246   0.255   0.266   0.267   0.256   0.258   0.243   0.260   0.254   0.234   0.227   0.227   0.225
    24.25    0.235   0.221   0.230   0.230   0.230   0.239   0.239   0.231   0.234   0.230   0.239   0.233   0.245   0.246   0.253   0.241   0.243   0.240   0.254   0.248   0.251   0.254   0.255   0.255   0.248   0.259   0.265   0.256   0.241   0.250   0.237   0.238   0.221   0.239   0.230
    19.60    0.229   0.231   0.217   0.222   0.231   0.229   0.234   0.230   0.229   0.238   0.245   0.253   0.245   0.244   0.251   0.250   0.245   0.237   0.248   0.255   0.249   0.249   0.263   0.260   0.246   0.250   0.258   0.245   0.246   0.245   0.241   0.234   0.230   0.234   0.222
    14.95    0.233   0.220   0.212   0.219   0.228   0.235   0.233   0.224   0.224   0.245   0.245   0.245   0.245   0.247   0.253   0.250   0.243   0.239   0.237   0.238   0.248   0.253   0.260   0.272   0.258   0.258   0.259   0.248   0.256   0.248   0.239   0.228   0.226   0.222   0.226
    10.30    0.221   0.220   0.227   0.228   0.224   0.235   0.232   0.223   0.223   0.229   0.237   0.242   0.252   0.245   0.251   0.251   0.241   0.250   0.245   0.236   0.244   0.250   0.260   0.269   0.259   0.260   0.253   0.252   0.250   0.243   0.230   0.229   0.238   0.236   0.243
     5.65    0.215   0.238   0.234   0.225   0.221   0.224   0.231   0.219   0.233   0.240   0.243   0.250   0.254   0.247   0.239   0.254   0.243   0.243   0.245   0.234   0.239   0.250   0.265   0.272   0.259   0.248   0.245   0.253   0.237   0.243   0.236   0.232   0.237   0.243   0.237
     1.00    0.237   0.242   0.237   0.233   0.225   0.221   0.232   0.224   0.229   0.236   0.238   0.245   0.249   0.238   0.246   0.258   0.250   0.234   0.249   0.241   0.255   0.252   0.259   0.252   0.244   0.238   0.245   0.245   0.237   0.240   0.242   0.233   0.234   0.240   0.240

   Mean standard deviation across all grid points:
      u component:    0.438 m/s
      v component:    0.385 m/s
      w component:    0.239 m/s


U-component (X) statistics from the interpolated hub point:

   Mean =   9.9913 m/s
   TI   =   4.3899 %


Processing complete.  6539.3 CPU seconds used.
