
This summary file was generated by TurbSim (from OpenFAST-v3.5.3) on 20-Apr-2025 at 05:28:12.


Runtime Options:

**********  Random seed #1
    RANLUX  Type of random number generator
         F  Output binary HH turbulence parameters?
         F  Output formatted turbulence parameters?
         F  Output AeroDyn HH files?
         T  Output AeroDyn FF files?
         F  Output BLADED FF files?
         F  Output tower data?
         F  Output HAWC FF files?
         F  Output formatted FF files?
         T  Output coherent turbulence time step file?
 0 -  NONE  IEC turbulence models scaled to exact specified standard deviation


Turbine/Model Specifications:

        37  Vertical grid-point matrix dimension
        35  Horizontal grid-point matrix dimension
     0.250  Time step [seconds]
   900.000  Analysis time [seconds]
   900.000  Usable output time [seconds]
    89.350  Hub height [m]
   167.400  Grid height [m]
   158.100  Grid width [m]
     0.000  Vertical flow angle [degrees]
     0.000  Horizontal flow angle [degrees]


Meteorological Boundary Conditions:

    TIMESR  User-input time series spectral model
       N/A  IEC standard
       N/A  IEC turbulence characteristic
       N/A  IEC turbulence type
       N/A  IEC Extreme Turbulence Model (ETM) "c" parameter [m/s]
       PL   Wind profile type
    90.000  Reference height [m]
    10.000  Reference wind speed [m/s]
       N/A  Jet height [m]
     0.120  Power law exponent
     0.030  Surface roughness length [m]


Non-IEC Meteorological Boundary Conditions:

    45.000  Site latitude [degrees]
     0.050  Gradient Richardson number
     0.480  Friction or shear velocity [m/s]
       N/A  Mixing layer depth [m]
       N/A  Mean hub u'w' Reynolds stress
       N/A  Mean hub u'v' Reynolds stress
       N/A  Mean hub v'w' Reynolds stress


Spatial Coherence Models:

       IEC  u-component coherence model
       IEC  v-component coherence model
       IEC  w-component coherence model
(   12.000, 0.353E-03)  u-component coherence parameters
(   12.000, 0.353E-03)  v-component coherence parameters
(   12.000, 0.353E-03)  w-component coherence parameters
       N/A  Coherence exponent


Coherent Turbulence Scaling Parameters:

.\EventData
            Name of the path containing the coherent turbulence data files
       dns  Type of coherent turbulence data files
     1.000  Disturbance scale (ratio of wave height to rotor diameter)
     0.500  Fractional location of tower centerline from right
     0.500  Fractional location of hub height from the bottom of the dataset
    30.000  Minimum start time for coherent structures [seconds]


Profiles from User-Defined Time-Series Input:

  Height   Wind Speed   Horizontal Angle   Vertical Angle
   (m)        (m/s)          (deg)              (deg)    
  ------   ----------   ----------------   --------------
   94.00      10.00          -0.63                0.00


You have requested that the following file(s) be generated:

   /kfs3/scratch/agupta/Projects/RL_Incubator/FinalRuns_Veer/Seed4/./FFSim_Seed4/Cond00_v10.0_PL0.12_TI7.5/Case1_wdirp02/Seed_3/TurbSim/HighT7.bts (AeroDyn/TurbSim full-field wind file)


Turbulence Simulation Scaling Parameter Summary:

   Turbulence model used                            =  User-input time series
   Gradient Richardson number                       =    0.050
   Monin-Obukhov (M-O) z/L parameter                =    0.067
   Monin-Obukhov (M-O) length scale                 = 1340.250 m
   Mean wind speed at hub height                    =    9.991 m/s

   Wind profile type                                =  Power law
   Power law exponent                               =    0.120
   Mean shear across rotor disk                     =    0.019 (m/s)/m
   Assumed rotor diameter                           =  158.100 m
   Surface roughness length                         =    0.030 m

   Nyquist frequency of turbulent wind field        =    2.000 Hz

   Number of time steps in the FFT                  =     3600
   Number of time steps output                      =     3600
   Number of points simulated                       =     1296


Mean Flow Angles:

   Vertical   =   0.0 degrees
   Horizontal =   0.0 degrees

Mean Wind Speed Profile:

   Height    Wind Speed   Horizontal Angle  Vertical Angle  U-comp (X)   V-comp (Y)   W-comp (Z)
     (m)        (m/s)         (degrees)       (degrees)       (m/s)        (m/s)        (m/s)   
   ------    ----------   ----------------  --------------  ----------   ----------   ----------
    168.4       10.78            0.00            0.00         10.78         0.00         0.00
    163.7       10.74            0.00            0.00         10.74         0.00         0.00
    159.1       10.71            0.00            0.00         10.71         0.00         0.00
    154.4       10.67            0.00            0.00         10.67         0.00         0.00
    149.8       10.63            0.00            0.00         10.63         0.00         0.00
    145.1       10.59            0.00            0.00         10.59         0.00         0.00
    140.5       10.55            0.00            0.00         10.55         0.00         0.00
    135.8       10.51            0.00            0.00         10.51         0.00         0.00
    131.2       10.46            0.00            0.00         10.46         0.00         0.00
    126.5       10.42            0.00            0.00         10.42         0.00         0.00
    121.9       10.37            0.00            0.00         10.37         0.00         0.00
    117.2       10.32            0.00            0.00         10.32         0.00         0.00
    112.6       10.27            0.00            0.00         10.27         0.00         0.00
    107.9       10.22            0.00            0.00         10.22         0.00         0.00
    103.3       10.17            0.00            0.00         10.17         0.00         0.00
     98.6       10.11            0.00            0.00         10.11         0.00         0.00
     94.0       10.05            0.00            0.00         10.05         0.00         0.00
     89.3        9.99            0.00            0.00          9.99         0.00         0.00
     84.7        9.93            0.00            0.00          9.93         0.00         0.00
     80.0        9.86            0.00            0.00          9.86         0.00         0.00
     75.4        9.79            0.00            0.00          9.79         0.00         0.00
     70.7        9.72            0.00            0.00          9.72         0.00         0.00
     66.1        9.64            0.00            0.00          9.64         0.00         0.00
     61.4        9.55            0.00            0.00          9.55         0.00         0.00
     56.8        9.46            0.00            0.00          9.46         0.00         0.00
     52.1        9.37            0.00            0.00          9.37         0.00         0.00
     47.5        9.26            0.00            0.00          9.26         0.00         0.00
     42.8        9.15            0.00            0.00          9.15         0.00         0.00
     38.2        9.02            0.00            0.00          9.02         0.00         0.00
     33.5        8.88            0.00            0.00          8.88         0.00         0.00
     28.9        8.73            0.00            0.00          8.73         0.00         0.00
     24.2        8.54            0.00            0.00          8.54         0.00         0.00
     19.6        8.33            0.00            0.00          8.33         0.00         0.00
     14.9        8.06            0.00            0.00          8.06         0.00         0.00
     10.3        7.71            0.00            0.00          7.71         0.00         0.00
      5.6        7.17            0.00            0.00          7.17         0.00         0.00
      1.0        5.83            0.00            0.00          5.83         0.00         0.00


Harvested Random Seeds after Generation of the Random Numbers:

     65026800 K 1
            0 K 2


Hub-Height Simulated Turbulence Statistical Summary:

   Type of Wind        Min (m/s)   Mean (m/s)    Max (m/s)  Sigma (m/s)       TI (%)
   ----------------    ---------   ----------    ---------  -----------       ------
   Longitudinal (u)         7.18         9.99        12.12        0.787        7.875
   Lateral (v)             -1.49         0.00         1.73        0.510        5.103
   Vertical (w)            -1.23         0.00         1.31        0.357        3.571
   U component              7.18         9.99        12.12        0.787        7.875
   V component             -1.49         0.00         1.73        0.510        5.103
   W component             -1.23         0.00         1.31        0.357        3.571
   Horizontal (U&V)         7.18        10.00        12.12        0.786        7.856
   Total                    7.21        10.01        12.13        0.786        7.849

                       Min Reynolds     Mean Reynolds    Max Reynolds    Correlation
   Product             Stress (m/s)^2   Stress (m/s)^2   Stress (m/s)^2  Coefficient
   ----------------    --------------   --------------   --------------  -----------
   u'w'                     -1.845             0.013             1.920         0.046
   u'v'                     -2.180             0.063             1.926         0.158
   v'w'                     -1.262            -0.006             1.266        -0.032


   Friction Velocity (Ustar)  =      0.114 m/s
   Maximum Instantaneous TKE  =      4.159 (m/s)^2
   Maximum Instantaneous CTKE =      1.128 (m/s)^2


Grid Point Variance Summary:

   Y-coord  -79.05  -74.40  -69.75  -65.10  -60.45  -55.80  -51.15  -46.50  -41.85  -37.20  -32.55  -27.90  -23.25  -18.60  -13.95   -9.30   -4.65    0.00    4.65    9.30   13.95   18.60   23.25   27.90   32.55   37.20   41.85   46.50   51.15   55.80   60.45   65.10   69.75   74.40   79.05

   Height   Standard deviation at grid points for the u component:
   168.40    0.854   0.834   0.828   0.909   0.873   0.973   1.010   1.031   0.984   0.955   0.985   0.947   0.850   0.830   0.797   0.726   0.762   0.750   0.691   0.709   0.708   0.771   0.830   0.904   0.854   0.922   0.973   0.950   0.941   0.937   0.947   0.958   0.999   0.994   1.089
   163.75    0.866   0.869   0.860   0.885   0.861   0.941   0.990   0.990   0.936   0.967   0.933   0.874   0.818   0.765   0.701   0.736   0.751   0.759   0.692   0.686   0.770   0.809   0.847   0.853   0.857   0.937   0.960   0.890   0.887   0.964   1.002   0.958   0.982   0.996   1.051
   159.10    0.848   0.775   0.759   0.801   0.851   0.924   0.959   0.919   0.955   0.984   0.918   0.836   0.916   0.854   0.785   0.809   0.724   0.771   0.718   0.743   0.814   0.808   0.879   0.889   0.893   0.946   1.021   0.949   0.911   0.883   0.953   0.975   0.880   0.947   0.960
   154.45    0.809   0.754   0.775   0.872   0.875   0.922   0.928   0.941   0.916   0.941   0.906   0.843   0.893   0.902   0.800   0.766   0.745   0.763   0.775   0.795   0.851   0.824   0.926   0.888   0.864   0.919   0.993   0.973   0.933   0.897   0.991   0.959   0.884   0.899   0.884
   149.80    0.784   0.794   0.709   0.785   0.870   0.836   0.911   0.901   0.856   0.857   0.893   0.818   0.872   0.838   0.857   0.766   0.762   0.731   0.802   0.753   0.840   0.861   0.929   0.887   0.843   0.881   0.919   0.956   0.908   1.008   1.027   0.972   0.874   0.890   0.893
   145.15    0.863   0.784   0.767   0.744   0.846   0.892   0.882   0.943   0.900   0.849   0.861   0.816   0.849   0.827   0.821   0.781   0.779   0.819   0.794   0.752   0.826   0.856   0.922   0.901   0.864   0.905   0.884   0.897   0.855   0.960   0.996   1.022   0.903   0.927   0.879
   140.50    0.925   0.852   0.869   0.834   0.874   0.849   0.901   0.913   0.862   0.833   0.795   0.777   0.776   0.747   0.780   0.748   0.763   0.801   0.867   0.850   0.901   0.867   0.940   0.863   0.840   0.909   0.866   0.847   0.824   0.972   0.941   0.945   0.942   0.909   0.884
   135.85    1.022   0.882   0.864   0.901   0.815   0.840   0.870   0.875   0.830   0.835   0.772   0.709   0.740   0.759   0.732   0.706   0.832   0.879   0.867   0.893   0.935   0.993   0.915   0.878   0.876   0.932   0.982   0.930   0.926   1.022   1.087   1.035   1.035   0.936   0.916
   131.20    1.015   0.877   0.900   0.796   0.838   0.841   0.828   0.861   0.868   0.809   0.785   0.769   0.711   0.774   0.757   0.820   0.804   0.815   0.843   0.855   0.839   0.937   0.959   0.942   0.950   1.061   1.018   1.032   0.958   0.996   1.030   1.010   0.979   0.911   0.974
   126.55    0.997   0.876   0.861   0.827   0.823   0.844   0.815   0.839   0.884   0.785   0.768   0.758   0.775   0.818   0.842   0.825   0.826   0.721   0.809   0.888   0.908   0.916   0.958   0.934   0.992   1.079   1.063   0.949   0.992   1.007   0.943   0.995   0.951   0.913   1.015
   121.90    0.955   0.939   0.959   0.882   0.918   0.887   0.843   0.857   0.850   0.774   0.756   0.823   0.805   0.840   0.885   0.779   0.741   0.692   0.736   0.833   0.857   0.929   0.939   0.919   1.014   1.032   1.044   1.026   0.983   0.949   0.939   1.048   1.075   1.003   1.002
   117.25    1.038   1.019   0.937   0.976   0.918   0.895   0.918   0.828   0.836   0.758   0.748   0.748   0.850   0.800   0.842   0.837   0.706   0.666   0.713   0.784   0.818   0.847   0.891   0.905   1.027   1.079   0.967   1.055   1.056   1.017   1.017   1.059   1.082   0.953   0.948
   112.60    1.029   0.989   0.976   1.037   1.009   0.889   0.932   0.826   0.852   0.809   0.764   0.778   0.806   0.834   0.806   0.752   0.768   0.742   0.717   0.769   0.738   0.744   0.863   0.902   1.009   1.043   0.982   1.010   0.982   1.071   1.096   1.096   1.029   0.930   0.944
   107.95    0.963   1.011   1.023   1.016   1.022   0.936   0.890   0.813   0.791   0.795   0.767   0.719   0.759   0.786   0.768   0.760   0.831   0.788   0.772   0.810   0.779   0.778   0.882   0.968   1.005   1.044   0.992   0.996   1.055   1.035   1.057   1.026   0.976   0.944   0.896
   103.30    0.978   1.011   0.910   0.992   0.962   0.908   0.812   0.806   0.767   0.713   0.700   0.756   0.741   0.753   0.730   0.717   0.733   0.747   0.819   0.831   0.844   0.799   0.822   0.943   1.010   0.986   0.984   1.001   0.997   1.028   0.960   1.034   0.961   0.889   0.941
    98.65    1.010   0.944   0.957   0.971   0.901   0.831   0.820   0.744   0.777   0.732   0.742   0.773   0.762   0.700   0.718   0.824   0.742   0.804   0.829   0.801   0.821   0.825   0.881   0.900   0.929   0.996   0.970   0.955   0.976   0.988   0.931   0.966   1.037   0.931   0.946
    94.00    0.989   1.002   1.014   1.010   0.942   0.851   0.904   0.827   0.787   0.745   0.661   0.737   0.677   0.711   0.751   0.785   0.756   0.805   0.827   0.912   0.887   0.959   0.922   0.848   0.919   0.955   0.981   1.002   0.999   0.936   0.959   0.854   0.933   0.978   0.957
    89.35    1.006   0.943   0.951   0.921   0.919   0.843   0.923   0.839   0.812   0.760   0.677   0.702   0.663   0.694   0.731   0.752   0.727   0.787   0.818   0.821   0.947   1.005   0.918   0.857   0.898   0.897   0.886   0.932   0.906   0.995   0.953   0.885   0.872   0.980   1.021
    84.70    1.006   0.937   0.849   0.821   0.803   0.865   0.908   0.878   0.796   0.731   0.688   0.668   0.744   0.737   0.765   0.799   0.761   0.781   0.849   0.879   0.924   0.974   0.957   0.888   0.866   0.906   0.975   0.993   0.899   0.975   0.950   0.919   0.961   0.987   1.013
    80.05    0.947   0.832   0.810   0.846   0.853   0.854   0.847   0.832   0.765   0.713   0.705   0.703   0.734   0.801   0.804   0.743   0.802   0.877   0.915   0.853   0.893   0.948   0.926   0.961   0.938   0.926   0.978   0.938   0.882   0.991   1.017   1.012   1.002   0.991   0.957
    75.40    0.925   0.818   0.840   0.858   0.823   0.819   0.819   0.753   0.721   0.733   0.767   0.735   0.758   0.815   0.855   0.751   0.833   0.911   0.990   0.917   0.868   0.913   0.975   0.908   0.925   0.993   0.943   0.963   0.887   0.942   1.028   0.997   1.064   0.999   0.944
    70.75    0.888   0.842   0.887   0.988   0.972   0.835   0.813   0.747   0.709   0.712   0.713   0.692   0.757   0.839   0.809   0.760   0.745   0.872   0.985   0.961   0.939   0.938   1.016   0.914   0.947   0.951   0.979   0.880   0.878   0.922   0.984   1.020   1.069   0.977   0.990
    66.10    0.863   0.875   0.974   0.979   0.962   0.886   0.892   0.861   0.769   0.673   0.673   0.660   0.694   0.791   0.849   0.787   0.765   0.805   0.948   1.006   1.039   1.004   1.010   0.963   0.915   0.994   0.934   0.869   0.897   0.946   0.901   0.996   1.047   0.992   0.941
    61.45    0.865   0.911   1.011   0.979   0.919   0.956   0.868   0.804   0.745   0.731   0.672   0.639   0.679   0.795   0.856   0.847   0.814   0.906   0.954   1.035   0.998   0.996   0.960   1.002   0.952   0.966   0.956   0.907   0.851   0.901   0.906   0.991   1.062   0.948   0.851
    56.80    0.930   0.890   0.983   1.035   0.934   0.969   0.834   0.789   0.832   0.752   0.755   0.755   0.730   0.753   0.831   0.896   0.884   0.888   0.906   0.986   1.022   1.113   1.051   1.072   0.980   0.941   0.978   0.975   0.932   0.870   0.837   0.962   1.026   0.955   0.878
    52.15    0.968   0.876   0.944   0.999   0.948   0.981   0.853   0.840   0.792   0.797   0.767   0.710   0.761   0.760   0.786   0.831   0.906   0.915   0.969   1.031   1.046   1.087   1.067   1.036   0.910   0.963   0.920   0.964   0.888   0.934   0.878   0.932   0.981   0.905   0.885
    47.50    0.934   0.881   0.903   0.967   0.936   0.935   0.905   0.844   0.887   0.821   0.795   0.783   0.742   0.756   0.720   0.819   0.879   0.944   1.026   0.995   1.002   1.034   1.018   0.958   0.879   0.892   0.885   0.874   0.860   0.889   0.923   0.949   0.905   0.935   0.947
    42.85    1.068   0.974   1.040   1.047   0.989   0.905   0.906   0.919   0.824   0.827   0.857   0.848   0.748   0.740   0.837   0.864   0.924   0.978   1.000   1.003   0.979   0.969   0.946   0.958   0.843   0.814   0.740   0.824   0.903   0.863   0.863   0.856   0.890   0.911   0.911
    38.20    1.034   1.003   1.042   0.971   0.999   1.023   0.970   0.886   0.925   0.899   0.865   0.837   0.837   0.840   0.873   0.899   1.010   0.993   1.052   0.933   0.967   0.884   0.858   0.911   0.892   0.766   0.748   0.837   0.908   0.856   0.862   0.803   0.902   0.914   0.840
    33.55    1.058   1.053   1.041   0.958   1.014   0.996   1.039   0.980   0.901   0.991   0.977   0.925   0.942   0.939   0.941   0.938   1.058   1.071   1.028   0.995   0.979   0.944   0.909   0.926   0.828   0.800   0.830   0.782   0.877   0.935   0.899   0.873   0.902   0.888   0.926
    28.90    1.039   0.945   0.906   0.950   0.968   0.945   0.961   1.011   0.951   0.993   0.934   0.889   0.956   1.015   0.924   0.931   1.024   1.013   1.038   0.989   0.891   0.936   0.975   0.959   0.901   0.842   0.908   0.867   0.888   0.867   0.900   0.923   0.827   0.831   0.846
    24.25    1.012   0.966   0.911   0.886   0.998   0.900   0.910   0.968   0.994   1.022   0.955   0.991   0.936   0.972   0.928   0.941   0.934   1.021   1.072   1.034   0.961   0.938   0.993   0.981   0.965   0.942   0.879   0.921   0.868   0.839   0.795   0.852   0.847   0.802   0.826
    19.60    0.973   0.892   0.928   0.960   0.938   0.913   0.935   0.932   0.979   1.004   1.011   0.954   0.874   0.845   0.928   0.911   0.948   1.010   1.019   0.979   0.987   1.049   1.023   1.018   1.024   1.001   0.933   0.884   0.888   0.824   0.758   0.825   0.796   0.784   0.882
    14.95    0.939   0.885   0.893   0.844   0.863   0.952   0.882   0.939   0.933   0.944   1.008   1.007   0.971   0.837   0.877   0.842   0.884   0.935   0.945   0.955   1.036   1.084   1.053   0.923   0.932   0.986   1.004   0.918   0.948   0.822   0.780   0.796   0.843   0.838   0.868
    10.30    0.957   0.863   0.859   0.828   0.886   0.908   0.909   0.894   0.926   0.836   0.935   0.917   0.864   0.807   0.777   0.794   0.868   0.874   0.877   0.949   1.022   1.047   0.912   0.959   0.909   0.930   0.942   0.946   0.879   0.884   0.808   0.748   0.748   0.864   0.938
     5.65    0.963   0.889   0.785   0.818   0.809   0.793   0.781   0.823   0.823   0.836   0.859   0.817   0.835   0.781   0.771   0.811   0.807   0.871   0.912   0.929   0.936   0.966   0.880   0.934   0.971   0.863   0.884   0.882   0.818   0.815   0.788   0.762   0.787   0.871   0.923
     1.00    0.878   0.901   0.788   0.779   0.724   0.777   0.728   0.774   0.747   0.791   0.830   0.849   0.831   0.807   0.751   0.714   0.765   0.787   0.822   0.826   0.862   0.896   0.835   0.880   0.944   0.869   0.848   0.783   0.745   0.740   0.773   0.814   0.866   0.838   0.826

   Height   Standard deviation at grid points for the v component:
   168.40    0.486   0.487   0.474   0.484   0.479   0.502   0.508   0.528   0.534   0.546   0.535   0.537   0.567   0.595   0.601   0.586   0.588   0.575   0.619   0.594   0.562   0.552   0.567   0.539   0.552   0.540   0.528   0.546   0.530   0.560   0.538   0.553   0.532   0.551   0.543
   163.75    0.504   0.467   0.471   0.496   0.490   0.483   0.503   0.515   0.543   0.555   0.534   0.551   0.562   0.562   0.584   0.602   0.596   0.581   0.608   0.586   0.591   0.571   0.546   0.532   0.543   0.549   0.544   0.554   0.545   0.549   0.541   0.549   0.548   0.543   0.560
   159.10    0.499   0.491   0.480   0.487   0.494   0.503   0.512   0.530   0.544   0.532   0.544   0.547   0.552   0.546   0.572   0.585   0.597   0.590   0.607   0.566   0.583   0.561   0.551   0.542   0.533   0.526   0.556   0.554   0.559   0.553   0.535   0.535   0.530   0.513   0.518
   154.45    0.497   0.493   0.510   0.491   0.495   0.498   0.527   0.545   0.544   0.540   0.525   0.556   0.567   0.560   0.592   0.594   0.595   0.594   0.619   0.595   0.586   0.575   0.543   0.534   0.554   0.550   0.564   0.547   0.540   0.542   0.525   0.536   0.549   0.535   0.510
   149.80    0.521   0.519   0.503   0.511   0.521   0.543   0.528   0.531   0.557   0.531   0.533   0.551   0.542   0.573   0.588   0.604   0.624   0.626   0.630   0.625   0.611   0.564   0.567   0.559   0.564   0.544   0.518   0.528   0.531   0.506   0.518   0.524   0.518   0.536   0.527
   145.15    0.527   0.516   0.513   0.506   0.530   0.529   0.527   0.546   0.552   0.531   0.526   0.547   0.548   0.576   0.576   0.601   0.622   0.642   0.630   0.626   0.608   0.577   0.573   0.559   0.563   0.526   0.519   0.529   0.521   0.502   0.516   0.524   0.521   0.537   0.497
   140.50    0.540   0.512   0.523   0.530   0.524   0.500   0.517   0.534   0.523   0.535   0.531   0.553   0.560   0.568   0.567   0.599   0.608   0.609   0.574   0.614   0.602   0.556   0.555   0.540   0.531   0.521   0.523   0.527   0.514   0.504   0.491   0.505   0.500   0.532   0.478
   135.85    0.540   0.532   0.563   0.538   0.536   0.514   0.514   0.500   0.526   0.515   0.535   0.557   0.556   0.566   0.565   0.550   0.577   0.550   0.555   0.577   0.584   0.567   0.562   0.546   0.534   0.525   0.516   0.508   0.486   0.472   0.482   0.479   0.498   0.496   0.491
   131.20    0.520   0.545   0.536   0.549   0.518   0.512   0.522   0.517   0.492   0.522   0.539   0.550   0.582   0.562   0.565   0.548   0.565   0.546   0.569   0.560   0.575   0.583   0.572   0.538   0.532   0.515   0.540   0.495   0.473   0.459   0.474   0.479   0.482   0.487   0.477
   126.55    0.524   0.550   0.548   0.563   0.538   0.507   0.503   0.501   0.507   0.504   0.521   0.538   0.549   0.554   0.538   0.544   0.534   0.540   0.558   0.564   0.586   0.580   0.555   0.554   0.569   0.524   0.528   0.505   0.489   0.488   0.473   0.456   0.480   0.468   0.479
   121.90    0.528   0.519   0.527   0.543   0.524   0.507   0.498   0.489   0.496   0.500   0.503   0.503   0.531   0.550   0.533   0.523   0.536   0.572   0.571   0.569   0.563   0.570   0.567   0.563   0.531   0.515   0.518   0.487   0.525   0.501   0.473   0.466   0.475   0.462   0.474
   117.25    0.517   0.518   0.519   0.539   0.518   0.500   0.492   0.518   0.512   0.505   0.498   0.511   0.538   0.520   0.526   0.532   0.532   0.547   0.539   0.536   0.555   0.550   0.557   0.587   0.555   0.506   0.514   0.489   0.501   0.493   0.491   0.460   0.477   0.457   0.454
   112.60    0.509   0.517   0.527   0.542   0.520   0.489   0.499   0.499   0.510   0.519   0.515   0.497   0.529   0.531   0.523   0.543   0.538   0.534   0.540   0.533   0.566   0.554   0.553   0.554   0.533   0.489   0.485   0.490   0.508   0.522   0.496   0.473   0.471   0.457   0.455
   107.95    0.520   0.537   0.521   0.530   0.534   0.534   0.497   0.506   0.490   0.498   0.521   0.522   0.526   0.519   0.523   0.529   0.522   0.524   0.563   0.531   0.556   0.546   0.535   0.525   0.525   0.503   0.477   0.483   0.491   0.500   0.493   0.482   0.473   0.473   0.469
   103.30    0.561   0.571   0.533   0.533   0.518   0.525   0.520   0.541   0.507   0.517   0.492   0.522   0.530   0.504   0.489   0.516   0.520   0.535   0.551   0.557   0.543   0.560   0.531   0.531   0.524   0.504   0.500   0.501   0.481   0.506   0.497   0.488   0.463   0.473   0.466
    98.65    0.586   0.601   0.580   0.552   0.519   0.543   0.531   0.548   0.520   0.503   0.525   0.528   0.510   0.516   0.515   0.527   0.530   0.519   0.525   0.553   0.532   0.511   0.536   0.505   0.517   0.523   0.505   0.495   0.500   0.493   0.477   0.481   0.478   0.470   0.482
    94.00    0.566   0.569   0.563   0.531   0.551   0.542   0.550   0.548   0.526   0.540   0.544   0.526   0.531   0.490   0.507   0.523   0.532   0.510   0.516   0.511   0.502   0.523   0.531   0.517   0.519   0.521   0.507   0.526   0.527   0.496   0.491   0.497   0.484   0.493   0.508
    89.35    0.537   0.546   0.547   0.523   0.533   0.532   0.539   0.522   0.510   0.516   0.523   0.522   0.507   0.539   0.534   0.514   0.524   0.510   0.497   0.504   0.506   0.528   0.510   0.518   0.523   0.541   0.518   0.529   0.516   0.523   0.504   0.486   0.490   0.488   0.487
    84.70    0.528   0.548   0.525   0.501   0.534   0.514   0.552   0.537   0.551   0.515   0.529   0.504   0.498   0.522   0.523   0.508   0.489   0.507   0.511   0.521   0.524   0.511   0.504   0.506   0.523   0.533   0.526   0.525   0.531   0.520   0.501   0.501   0.497   0.475   0.502
    80.05    0.537   0.529   0.495   0.503   0.514   0.506   0.535   0.535   0.535   0.520   0.499   0.525   0.526   0.528   0.530   0.533   0.503   0.501   0.512   0.514   0.525   0.502   0.500   0.477   0.506   0.531   0.501   0.512   0.522   0.523   0.513   0.523   0.506   0.522   0.513
    75.40    0.519   0.522   0.517   0.529   0.507   0.494   0.522   0.526   0.520   0.516   0.508   0.505   0.537   0.528   0.532   0.527   0.494   0.467   0.503   0.525   0.508   0.510   0.492   0.476   0.507   0.502   0.508   0.500   0.505   0.520   0.540   0.535   0.512   0.508   0.510
    70.75    0.520   0.530   0.527   0.513   0.502   0.509   0.502   0.512   0.525   0.512   0.494   0.492   0.526   0.536   0.513   0.506   0.484   0.473   0.475   0.488   0.498   0.488   0.491   0.475   0.498   0.493   0.511   0.497   0.525   0.530   0.538   0.537   0.544   0.507   0.512
    66.10    0.540   0.520   0.521   0.513   0.485   0.500   0.495   0.512   0.528   0.514   0.492   0.500   0.531   0.510   0.508   0.485   0.481   0.469   0.487   0.473   0.509   0.506   0.501   0.492   0.478   0.486   0.472   0.512   0.509   0.502   0.499   0.498   0.521   0.505   0.515
    61.45    0.525   0.521   0.517   0.518   0.478   0.490   0.481   0.499   0.504   0.503   0.487   0.500   0.506   0.473   0.494   0.482   0.485   0.486   0.488   0.502   0.487   0.516   0.507   0.490   0.480   0.481   0.473   0.486   0.500   0.493   0.504   0.516   0.521   0.521   0.510
    56.80    0.535   0.536   0.525   0.500   0.466   0.472   0.480   0.493   0.495   0.485   0.500   0.492   0.511   0.500   0.487   0.477   0.494   0.494   0.479   0.493   0.495   0.500   0.493   0.503   0.502   0.518   0.481   0.486   0.467   0.484   0.496   0.489   0.505   0.516   0.508
    52.15    0.516   0.522   0.518   0.509   0.491   0.477   0.450   0.467   0.489   0.484   0.495   0.495   0.512   0.501   0.496   0.484   0.487   0.502   0.520   0.511   0.493   0.491   0.485   0.496   0.504   0.512   0.497   0.489   0.478   0.456   0.494   0.491   0.486   0.500   0.501
    47.50    0.534   0.496   0.502   0.502   0.493   0.486   0.453   0.445   0.466   0.473   0.491   0.504   0.519   0.509   0.476   0.503   0.501   0.500   0.499   0.519   0.497   0.504   0.513   0.505   0.523   0.513   0.514   0.494   0.485   0.498   0.512   0.471   0.475   0.504   0.505
    42.85    0.528   0.512   0.498   0.511   0.489   0.510   0.465   0.458   0.485   0.480   0.498   0.499   0.513   0.518   0.495   0.488   0.527   0.501   0.517   0.515   0.521   0.518   0.538   0.517   0.518   0.520   0.534   0.516   0.524   0.513   0.506   0.467   0.470   0.497   0.478
    38.20    0.534   0.511   0.492   0.503   0.492   0.502   0.474   0.458   0.477   0.482   0.489   0.512   0.505   0.524   0.524   0.484   0.503   0.524   0.533   0.515   0.510   0.509   0.514   0.529   0.509   0.517   0.512   0.545   0.511   0.521   0.484   0.470   0.477   0.492   0.473
    33.55    0.530   0.507   0.512   0.498   0.497   0.493   0.493   0.449   0.478   0.482   0.486   0.516   0.523   0.503   0.507   0.511   0.539   0.521   0.538   0.531   0.515   0.536   0.513   0.508   0.509   0.489   0.507   0.525   0.484   0.484   0.490   0.487   0.483   0.496   0.485
    28.90    0.513   0.502   0.493   0.494   0.502   0.493   0.464   0.467   0.474   0.475   0.489   0.501   0.542   0.549   0.547   0.528   0.556   0.555   0.555   0.533   0.538   0.553   0.522   0.515   0.500   0.502   0.516   0.539   0.489   0.494   0.494   0.476   0.477   0.491   0.490
    24.25    0.504   0.502   0.484   0.486   0.491   0.505   0.488   0.498   0.499   0.499   0.498   0.500   0.540   0.556   0.542   0.553   0.565   0.544   0.529   0.528   0.508   0.516   0.525   0.510   0.489   0.518   0.521   0.523   0.503   0.512   0.509   0.484   0.466   0.480   0.488
    19.60    0.499   0.522   0.519   0.483   0.514   0.490   0.502   0.481   0.508   0.489   0.508   0.504   0.536   0.542   0.542   0.529   0.540   0.514   0.513   0.507   0.513   0.500   0.517   0.503   0.514   0.511   0.532   0.508   0.488   0.490   0.496   0.486   0.452   0.458   0.484
    14.95    0.501   0.535   0.517   0.521   0.509   0.538   0.536   0.509   0.502   0.500   0.522   0.516   0.532   0.517   0.507   0.509   0.527   0.523   0.486   0.475   0.513   0.488   0.493   0.486   0.498   0.506   0.495   0.493   0.490   0.480   0.463   0.456   0.432   0.442   0.480
    10.30    0.503   0.493   0.538   0.536   0.533   0.531   0.534   0.506   0.525   0.496   0.492   0.499   0.518   0.500   0.492   0.486   0.523   0.499   0.472   0.481   0.503   0.488   0.495   0.498   0.501   0.473   0.454   0.481   0.482   0.480   0.454   0.441   0.461   0.471   0.487
     5.65    0.498   0.513   0.498   0.514   0.528   0.537   0.523   0.509   0.494   0.498   0.511   0.505   0.503   0.488   0.479   0.465   0.495   0.494   0.480   0.481   0.470   0.491   0.489   0.522   0.495   0.494   0.463   0.483   0.474   0.476   0.464   0.473   0.472   0.491   0.501
     1.00    0.508   0.500   0.509   0.492   0.506   0.522   0.497   0.493   0.489   0.492   0.483   0.499   0.499   0.497   0.463   0.467   0.452   0.466   0.462   0.482   0.466   0.484   0.506   0.526   0.489   0.465   0.485   0.472   0.504   0.488   0.472   0.514   0.499   0.524   0.522

   Height   Standard deviation at grid points for the w component:
   168.40    0.362   0.373   0.365   0.367   0.355   0.361   0.363   0.362   0.354   0.349   0.346   0.361   0.337   0.330   0.345   0.353   0.343   0.353   0.355   0.357   0.352   0.343   0.356   0.350   0.338   0.343   0.350   0.352   0.342   0.333   0.334   0.344   0.354   0.355   0.363
   163.75    0.350   0.366   0.351   0.356   0.345   0.359   0.358   0.355   0.342   0.352   0.343   0.353   0.350   0.341   0.347   0.349   0.358   0.347   0.345   0.347   0.348   0.337   0.344   0.355   0.345   0.352   0.357   0.351   0.344   0.337   0.349   0.355   0.355   0.357   0.362
   159.10    0.354   0.345   0.347   0.362   0.356   0.363   0.370   0.366   0.355   0.343   0.353   0.360   0.352   0.360   0.363   0.348   0.339   0.340   0.343   0.345   0.355   0.339   0.353   0.339   0.346   0.357   0.357   0.363   0.357   0.333   0.345   0.357   0.356   0.356   0.355
   154.45    0.338   0.341   0.342   0.362   0.359   0.367   0.353   0.344   0.343   0.347   0.343   0.348   0.352   0.343   0.354   0.347   0.330   0.333   0.344   0.349   0.352   0.349   0.356   0.347   0.350   0.361   0.365   0.357   0.355   0.352   0.344   0.354   0.356   0.351   0.349
   149.80    0.353   0.347   0.347   0.351   0.352   0.354   0.345   0.348   0.345   0.336   0.341   0.351   0.347   0.342   0.344   0.342   0.339   0.338   0.334   0.357   0.360   0.355   0.361   0.366   0.352   0.343   0.356   0.359   0.351   0.367   0.356   0.366   0.362   0.366   0.360
   145.15    0.354   0.345   0.356   0.359   0.355   0.349   0.332   0.344   0.334   0.334   0.340   0.341   0.352   0.343   0.340   0.338   0.342   0.344   0.347   0.366   0.360   0.365   0.360   0.353   0.344   0.333   0.352   0.359   0.352   0.344   0.352   0.359   0.364   0.372   0.370
   140.50    0.346   0.346   0.352   0.345   0.340   0.326   0.335   0.350   0.352   0.342   0.346   0.346   0.338   0.342   0.349   0.344   0.349   0.345   0.350   0.363   0.351   0.350   0.349   0.350   0.346   0.361   0.348   0.344   0.345   0.343   0.347   0.351   0.353   0.362   0.364
   135.85    0.341   0.342   0.335   0.343   0.327   0.331   0.341   0.345   0.345   0.356   0.341   0.350   0.343   0.346   0.338   0.349   0.346   0.344   0.357   0.348   0.347   0.355   0.354   0.355   0.347   0.355   0.343   0.350   0.338   0.334   0.346   0.347   0.359   0.367   0.365
   131.20    0.346   0.345   0.354   0.358   0.347   0.333   0.334   0.342   0.355   0.349   0.357   0.348   0.351   0.349   0.326   0.328   0.339   0.345   0.344   0.351   0.347   0.345   0.347   0.350   0.350   0.345   0.330   0.339   0.345   0.345   0.348   0.354   0.361   0.367   0.361
   126.55    0.345   0.337   0.337   0.354   0.345   0.333   0.330   0.330   0.330   0.337   0.344   0.344   0.361   0.355   0.343   0.343   0.348   0.346   0.356   0.353   0.352   0.337   0.344   0.348   0.355   0.348   0.342   0.339   0.335   0.352   0.334   0.331   0.337   0.348   0.355
   121.90    0.340   0.333   0.343   0.343   0.343   0.334   0.337   0.343   0.352   0.345   0.356   0.348   0.353   0.354   0.344   0.351   0.365   0.362   0.354   0.353   0.346   0.345   0.356   0.356   0.340   0.347   0.338   0.342   0.352   0.345   0.339   0.332   0.338   0.348   0.351
   117.25    0.334   0.340   0.337   0.340   0.345   0.341   0.350   0.341   0.341   0.336   0.340   0.349   0.352   0.354   0.351   0.344   0.358   0.360   0.354   0.354   0.351   0.348   0.343   0.348   0.354   0.350   0.335   0.343   0.366   0.357   0.340   0.343   0.344   0.344   0.344
   112.60    0.341   0.348   0.346   0.337   0.342   0.334   0.349   0.347   0.341   0.341   0.335   0.372   0.375   0.375   0.359   0.352   0.361   0.360   0.360   0.359   0.352   0.338   0.353   0.352   0.357   0.348   0.347   0.354   0.370   0.360   0.352   0.331   0.339   0.343   0.350
   107.95    0.352   0.360   0.371   0.353   0.349   0.357   0.348   0.359   0.358   0.332   0.355   0.380   0.366   0.359   0.359   0.361   0.361   0.361   0.352   0.362   0.357   0.348   0.356   0.349   0.345   0.351   0.357   0.357   0.355   0.358   0.356   0.347   0.348   0.344   0.348
   103.30    0.353   0.358   0.353   0.366   0.346   0.350   0.352   0.363   0.367   0.352   0.345   0.360   0.360   0.366   0.370   0.362   0.356   0.361   0.353   0.353   0.362   0.343   0.342   0.345   0.348   0.340   0.350   0.348   0.347   0.351   0.359   0.360   0.360   0.363   0.345
    98.65    0.356   0.347   0.349   0.356   0.347   0.355   0.352   0.358   0.368   0.355   0.358   0.360   0.356   0.366   0.369   0.358   0.357   0.386   0.374   0.356   0.361   0.340   0.334   0.338   0.347   0.349   0.346   0.355   0.352   0.356   0.361   0.355   0.366   0.370   0.366
    94.00    0.352   0.342   0.346   0.339   0.348   0.363   0.360   0.360   0.378   0.373   0.362   0.351   0.346   0.351   0.359   0.371   0.357   0.371   0.365   0.361   0.347   0.345   0.341   0.352   0.363   0.366   0.356   0.345   0.357   0.365   0.361   0.355   0.353   0.362   0.338
    89.35    0.353   0.357   0.353   0.341   0.340   0.346   0.353   0.369   0.369   0.364   0.359   0.351   0.355   0.341   0.354   0.359   0.365   0.357   0.357   0.352   0.337   0.336   0.343   0.350   0.352   0.349   0.360   0.353   0.346   0.352   0.351   0.367   0.352   0.351   0.352
    84.70    0.371   0.361   0.357   0.353   0.355   0.341   0.353   0.374   0.373   0.377   0.368   0.349   0.356   0.355   0.354   0.358   0.359   0.355   0.347   0.357   0.349   0.340   0.348   0.356   0.355   0.376   0.356   0.360   0.344   0.357   0.357   0.354   0.356   0.361   0.360
    80.05    0.353   0.355   0.349   0.340   0.345   0.350   0.345   0.364   0.365   0.363   0.369   0.365   0.359   0.355   0.350   0.352   0.358   0.351   0.352   0.356   0.342   0.338   0.337   0.352   0.361   0.372   0.361   0.356   0.355   0.359   0.344   0.362   0.362   0.371   0.363
    75.40    0.363   0.343   0.344   0.350   0.338   0.363   0.364   0.360   0.365   0.352   0.362   0.347   0.357   0.362   0.358   0.353   0.368   0.359   0.353   0.343   0.345   0.345   0.358   0.362   0.363   0.363   0.372   0.376   0.357   0.366   0.355   0.348   0.362   0.368   0.359
    70.75    0.354   0.355   0.346   0.345   0.340   0.361   0.364   0.347   0.347   0.347   0.352   0.363   0.356   0.351   0.357   0.378   0.363   0.355   0.354   0.345   0.328   0.347   0.365   0.368   0.372   0.367   0.360   0.362   0.367   0.367   0.356   0.343   0.363   0.369   0.340
    66.10    0.343   0.352   0.359   0.358   0.344   0.357   0.351   0.349   0.340   0.349   0.344   0.354   0.352   0.355   0.356   0.351   0.360   0.370   0.351   0.358   0.353   0.355   0.362   0.358   0.364   0.359   0.365   0.362   0.363   0.367   0.370   0.360   0.362   0.368   0.347
    61.45    0.353   0.353   0.352   0.351   0.344   0.353   0.351   0.358   0.347   0.348   0.351   0.344   0.340   0.348   0.355   0.353   0.371   0.364   0.365   0.364   0.358   0.352   0.351   0.352   0.334   0.347   0.359   0.355   0.352   0.358   0.376   0.375   0.350   0.364   0.357
    56.80    0.343   0.348   0.349   0.350   0.348   0.340   0.353   0.358   0.355   0.341   0.343   0.339   0.346   0.357   0.355   0.353   0.354   0.358   0.373   0.353   0.351   0.351   0.340   0.341   0.344   0.355   0.355   0.358   0.360   0.359   0.370   0.363   0.348   0.361   0.361
    52.15    0.361   0.365   0.352   0.344   0.344   0.363   0.362   0.366   0.360   0.345   0.348   0.342   0.358   0.370   0.371   0.352   0.341   0.362   0.368   0.377   0.358   0.364   0.346   0.348   0.351   0.367   0.367   0.354   0.360   0.360   0.373   0.358   0.356   0.362   0.363
    47.50    0.369   0.361   0.357   0.335   0.328   0.342   0.349   0.353   0.350   0.342   0.350   0.344   0.359   0.371   0.375   0.355   0.367   0.351   0.363   0.369   0.372   0.364   0.362   0.351   0.363   0.361   0.363   0.363   0.362   0.366   0.373   0.355   0.354   0.360   0.371
    42.85    0.356   0.366   0.362   0.334   0.347   0.335   0.346   0.344   0.345   0.341   0.349   0.349   0.362   0.364   0.351   0.354   0.362   0.366   0.370   0.380   0.369   0.368   0.357   0.357   0.372   0.367   0.372   0.370   0.360   0.362   0.371   0.349   0.363   0.357   0.362
    38.20    0.366   0.373   0.357   0.349   0.335   0.341   0.345   0.347   0.351   0.347   0.349   0.363   0.364   0.360   0.348   0.362   0.363   0.352   0.359   0.368   0.380   0.367   0.374   0.368   0.373   0.386   0.370   0.363   0.360   0.369   0.363   0.358   0.346   0.356   0.359
    33.55    0.366   0.365   0.365   0.357   0.335   0.341   0.356   0.359   0.347   0.344   0.357   0.355   0.360   0.359   0.338   0.344   0.355   0.359   0.372   0.377   0.380   0.375   0.368   0.358   0.368   0.372   0.362   0.364   0.358   0.356   0.370   0.370   0.363   0.357   0.363
    28.90    0.359   0.355   0.362   0.353   0.329   0.336   0.349   0.350   0.350   0.350   0.364   0.369   0.369   0.358   0.350   0.339   0.346   0.338   0.379   0.367   0.369   0.380   0.367   0.373   0.366   0.373   0.374   0.368   0.369   0.369   0.381   0.363   0.364   0.348   0.355
    24.25    0.353   0.360   0.358   0.363   0.342   0.344   0.349   0.358   0.368   0.372   0.366   0.354   0.364   0.363   0.355   0.356   0.330   0.329   0.364   0.376   0.369   0.375   0.372   0.377   0.360   0.374   0.369   0.374   0.372   0.366   0.371   0.377   0.361   0.356   0.350
    19.60    0.348   0.351   0.362   0.367   0.365   0.355   0.360   0.368   0.365   0.376   0.371   0.368   0.360   0.357   0.355   0.351   0.353   0.349   0.351   0.382   0.377   0.363   0.371   0.371   0.353   0.374   0.382   0.377   0.365   0.372   0.377   0.365   0.365   0.355   0.336
    14.95    0.369   0.366   0.376   0.376   0.377   0.367   0.358   0.359   0.373   0.361   0.373   0.376   0.373   0.351   0.364   0.346   0.342   0.361   0.365   0.364   0.379   0.359   0.371   0.365   0.372   0.372   0.369   0.372   0.365   0.354   0.360   0.359   0.345   0.356   0.350
    10.30    0.366   0.369   0.374   0.369   0.375   0.383   0.372   0.376   0.369   0.363   0.373   0.366   0.356   0.364   0.357   0.348   0.361   0.361   0.364   0.352   0.352   0.371   0.358   0.353   0.359   0.363   0.362   0.361   0.363   0.356   0.345   0.358   0.362   0.344   0.354
     5.65    0.364   0.365   0.372   0.374   0.366   0.372   0.373   0.363   0.366   0.373   0.369   0.363   0.357   0.346   0.348   0.338   0.351   0.357   0.356   0.350   0.348   0.360   0.357   0.347   0.348   0.363   0.361   0.342   0.354   0.343   0.342   0.346   0.346   0.343   0.337
     1.00    0.355   0.363   0.375   0.374   0.373   0.373   0.369   0.364   0.358   0.362   0.367   0.347   0.343   0.341   0.341   0.355   0.354   0.350   0.361   0.363   0.361   0.361   0.351   0.360   0.350   0.354   0.343   0.353   0.342   0.349   0.337   0.342   0.355   0.349   0.333

   Mean standard deviation across all grid points:
      u component:    0.889 m/s
      v component:    0.516 m/s
      w component:    0.354 m/s


U-component (X) statistics from the interpolated hub point:

   Mean =   9.9913 m/s
   TI   =   7.8755 %


Processing complete.  6070.7 CPU seconds used.
