
This summary file was generated by TurbSim (from OpenFAST-v3.5.3) on 20-Apr-2025 at 02:25:43.


Runtime Options:

**********  Random seed #1
    RANLUX  Type of random number generator
         F  Output binary HH turbulence parameters?
         F  Output formatted turbulence parameters?
         F  Output AeroDyn HH files?
         T  Output AeroDyn FF files?
         F  Output BLADED FF files?
         F  Output tower data?
         F  Output HAWC FF files?
         F  Output formatted FF files?
         T  Output coherent turbulence time step file?
 0 -  NONE  IEC turbulence models scaled to exact specified standard deviation


Turbine/Model Specifications:

        37  Vertical grid-point matrix dimension
        35  Horizontal grid-point matrix dimension
     0.250  Time step [seconds]
   900.000  Analysis time [seconds]
   900.000  Usable output time [seconds]
    89.350  Hub height [m]
   167.400  Grid height [m]
   158.100  Grid width [m]
     0.000  Vertical flow angle [degrees]
     0.000  Horizontal flow angle [degrees]


Meteorological Boundary Conditions:

    TIMESR  User-input time series spectral model
       N/A  IEC standard
       N/A  IEC turbulence characteristic
       N/A  IEC turbulence type
       N/A  IEC Extreme Turbulence Model (ETM) "c" parameter [m/s]
       PL   Wind profile type
    90.000  Reference height [m]
    10.000  Reference wind speed [m/s]
       N/A  Jet height [m]
     0.120  Power law exponent
     0.030  Surface roughness length [m]


Non-IEC Meteorological Boundary Conditions:

    45.000  Site latitude [degrees]
     0.050  Gradient Richardson number
     0.480  Friction or shear velocity [m/s]
       N/A  Mixing layer depth [m]
       N/A  Mean hub u'w' Reynolds stress
       N/A  Mean hub u'v' Reynolds stress
       N/A  Mean hub v'w' Reynolds stress


Spatial Coherence Models:

       IEC  u-component coherence model
       IEC  v-component coherence model
       IEC  w-component coherence model
(   12.000, 0.353E-03)  u-component coherence parameters
(   12.000, 0.353E-03)  v-component coherence parameters
(   12.000, 0.353E-03)  w-component coherence parameters
       N/A  Coherence exponent


Coherent Turbulence Scaling Parameters:

.\EventData
            Name of the path containing the coherent turbulence data files
       dns  Type of coherent turbulence data files
     1.000  Disturbance scale (ratio of wave height to rotor diameter)
     0.500  Fractional location of tower centerline from right
     0.500  Fractional location of hub height from the bottom of the dataset
    30.000  Minimum start time for coherent structures [seconds]


Profiles from User-Defined Time-Series Input:

  Height   Wind Speed   Horizontal Angle   Vertical Angle
   (m)        (m/s)          (deg)              (deg)    
  ------   ----------   ----------------   --------------
   94.00      10.00          -0.63               -0.00


You have requested that the following file(s) be generated:

   /kfs3/scratch/agupta/Projects/RL_Incubator/FinalRuns_Veer/Seed4/./FFSim_Seed4/Cond00_v10.0_PL0.12_TI5.0/Case0_wdirp00/Seed_3/TurbSim/HighT6.bts (AeroDyn/TurbSim full-field wind file)


Turbulence Simulation Scaling Parameter Summary:

   Turbulence model used                            =  User-input time series
   Gradient Richardson number                       =    0.050
   Monin-Obukhov (M-O) z/L parameter                =    0.067
   Monin-Obukhov (M-O) length scale                 = 1340.250 m
   Mean wind speed at hub height                    =    9.991 m/s

   Wind profile type                                =  Power law
   Power law exponent                               =    0.120
   Mean shear across rotor disk                     =    0.019 (m/s)/m
   Assumed rotor diameter                           =  158.100 m
   Surface roughness length                         =    0.030 m

   Nyquist frequency of turbulent wind field        =    2.000 Hz

   Number of time steps in the FFT                  =     3600
   Number of time steps output                      =     3600
   Number of points simulated                       =     1296


Mean Flow Angles:

   Vertical   =   0.0 degrees
   Horizontal =   0.0 degrees

Mean Wind Speed Profile:

   Height    Wind Speed   Horizontal Angle  Vertical Angle  U-comp (X)   V-comp (Y)   W-comp (Z)
     (m)        (m/s)         (degrees)       (degrees)       (m/s)        (m/s)        (m/s)   
   ------    ----------   ----------------  --------------  ----------   ----------   ----------
    168.4       10.78            0.00            0.00         10.78         0.00         0.00
    163.7       10.74            0.00            0.00         10.74         0.00         0.00
    159.1       10.71            0.00            0.00         10.71         0.00         0.00
    154.4       10.67            0.00            0.00         10.67         0.00         0.00
    149.8       10.63            0.00            0.00         10.63         0.00         0.00
    145.1       10.59            0.00            0.00         10.59         0.00         0.00
    140.5       10.55            0.00            0.00         10.55         0.00         0.00
    135.8       10.51            0.00            0.00         10.51         0.00         0.00
    131.2       10.46            0.00            0.00         10.46         0.00         0.00
    126.5       10.42            0.00            0.00         10.42         0.00         0.00
    121.9       10.37            0.00            0.00         10.37         0.00         0.00
    117.2       10.32            0.00            0.00         10.32         0.00         0.00
    112.6       10.27            0.00            0.00         10.27         0.00         0.00
    107.9       10.22            0.00            0.00         10.22         0.00         0.00
    103.3       10.17            0.00            0.00         10.17         0.00         0.00
     98.6       10.11            0.00            0.00         10.11         0.00         0.00
     94.0       10.05            0.00            0.00         10.05         0.00         0.00
     89.3        9.99            0.00            0.00          9.99         0.00         0.00
     84.7        9.93            0.00            0.00          9.93         0.00         0.00
     80.0        9.86            0.00            0.00          9.86         0.00         0.00
     75.4        9.79            0.00            0.00          9.79         0.00         0.00
     70.7        9.72            0.00            0.00          9.72         0.00         0.00
     66.1        9.64            0.00            0.00          9.64         0.00         0.00
     61.4        9.55            0.00            0.00          9.55         0.00         0.00
     56.8        9.46            0.00            0.00          9.46         0.00         0.00
     52.1        9.37            0.00            0.00          9.37         0.00         0.00
     47.5        9.26            0.00            0.00          9.26         0.00         0.00
     42.8        9.15            0.00            0.00          9.15         0.00         0.00
     38.2        9.02            0.00            0.00          9.02         0.00         0.00
     33.5        8.88            0.00            0.00          8.88         0.00         0.00
     28.9        8.73            0.00            0.00          8.73         0.00         0.00
     24.2        8.54            0.00            0.00          8.54         0.00         0.00
     19.6        8.33            0.00            0.00          8.33         0.00         0.00
     14.9        8.06            0.00            0.00          8.06         0.00         0.00
     10.3        7.71            0.00            0.00          7.71         0.00         0.00
      5.6        7.17            0.00            0.00          7.17         0.00         0.00
      1.0        5.83            0.00            0.00          5.83         0.00         0.00


Harvested Random Seeds after Generation of the Random Numbers:

     65026800 K 1
            0 K 2


Hub-Height Simulated Turbulence Statistical Summary:

   Type of Wind        Min (m/s)   Mean (m/s)    Max (m/s)  Sigma (m/s)       TI (%)
   ----------------    ---------   ----------    ---------  -----------       ------
   Longitudinal (u)         8.15         9.99        11.98        0.539        5.390
   Lateral (v)             -1.45        -0.00         1.46        0.380        3.804
   Vertical (w)            -0.75        -0.00         1.03        0.228        2.281
   U component              8.15         9.99        11.98        0.539        5.390
   V component             -1.45        -0.00         1.46        0.380        3.804
   W component             -0.75        -0.00         1.03        0.228        2.281
   Horizontal (U&V)         8.16        10.00        11.98        0.539        5.390
   Total                    8.16        10.00        11.98        0.539        5.386

                       Min Reynolds     Mean Reynolds    Max Reynolds    Correlation
   Product             Stress (m/s)^2   Stress (m/s)^2   Stress (m/s)^2  Coefficient
   ----------------    --------------   --------------   --------------  -----------
   u'w'                     -0.837            -0.013             0.847        -0.102
   u'v'                     -1.211            -0.016             1.353        -0.079
   v'w'                     -0.640            -0.004             0.470        -0.045


   Friction Velocity (Ustar)  =      0.112 m/s
   Maximum Instantaneous TKE  =      2.016 (m/s)^2
   Maximum Instantaneous CTKE =      0.711 (m/s)^2


Grid Point Variance Summary:

   Y-coord  -79.05  -74.40  -69.75  -65.10  -60.45  -55.80  -51.15  -46.50  -41.85  -37.20  -32.55  -27.90  -23.25  -18.60  -13.95   -9.30   -4.65    0.00    4.65    9.30   13.95   18.60   23.25   27.90   32.55   37.20   41.85   46.50   51.15   55.80   60.45   65.10   69.75   74.40   79.05

   Height   Standard deviation at grid points for the u component:
   168.40    0.534   0.551   0.533   0.605   0.573   0.608   0.623   0.645   0.588   0.579   0.581   0.572   0.504   0.498   0.478   0.460   0.462   0.442   0.446   0.447   0.459   0.509   0.529   0.540   0.536   0.573   0.561   0.564   0.567   0.558   0.594   0.632   0.663   0.669   0.728
   163.75    0.552   0.572   0.576   0.608   0.588   0.615   0.630   0.620   0.585   0.570   0.570   0.532   0.490   0.473   0.431   0.464   0.439   0.433   0.410   0.423   0.468   0.502   0.517   0.508   0.523   0.569   0.566   0.515   0.519   0.583   0.633   0.624   0.665   0.694   0.724
   159.10    0.533   0.508   0.541   0.589   0.578   0.631   0.614   0.563   0.578   0.600   0.570   0.494   0.513   0.479   0.484   0.480   0.460   0.426   0.405   0.445   0.485   0.526   0.551   0.554   0.523   0.570   0.605   0.551   0.547   0.543   0.612   0.637   0.616   0.662   0.683
   154.45    0.520   0.532   0.566   0.604   0.624   0.642   0.615   0.616   0.582   0.579   0.581   0.512   0.514   0.506   0.456   0.467   0.473   0.459   0.435   0.446   0.502   0.527   0.574   0.572   0.534   0.540   0.610   0.600   0.578   0.591   0.629   0.634   0.607   0.632   0.638
   149.80    0.533   0.554   0.524   0.575   0.611   0.578   0.622   0.618   0.586   0.541   0.565   0.517   0.512   0.461   0.462   0.441   0.451   0.430   0.464   0.472   0.515   0.548   0.600   0.570   0.510   0.548   0.575   0.612   0.597   0.644   0.669   0.624   0.570   0.595   0.608
   145.15    0.613   0.543   0.531   0.551   0.605   0.641   0.615   0.651   0.607   0.557   0.560   0.498   0.515   0.466   0.437   0.432   0.474   0.472   0.462   0.440   0.517   0.563   0.597   0.561   0.536   0.566   0.541   0.563   0.570   0.630   0.635   0.650   0.588   0.599   0.578
   140.50    0.632   0.605   0.613   0.612   0.635   0.622   0.649   0.649   0.617   0.568   0.550   0.505   0.492   0.441   0.438   0.431   0.476   0.502   0.479   0.470   0.534   0.536   0.576   0.539   0.576   0.574   0.556   0.550   0.549   0.624   0.595   0.593   0.604   0.563   0.553
   135.85    0.697   0.639   0.639   0.660   0.595   0.619   0.645   0.630   0.549   0.564   0.533   0.488   0.499   0.471   0.467   0.461   0.498   0.515   0.487   0.505   0.522   0.565   0.551   0.563   0.591   0.600   0.614   0.598   0.577   0.633   0.668   0.630   0.636   0.573   0.558
   131.20    0.696   0.632   0.650   0.601   0.626   0.632   0.603   0.609   0.575   0.556   0.521   0.526   0.484   0.465   0.488   0.544   0.513   0.537   0.502   0.497   0.507   0.541   0.554   0.605   0.644   0.685   0.674   0.651   0.619   0.635   0.632   0.629   0.591   0.559   0.596
   126.55    0.685   0.634   0.627   0.613   0.595   0.624   0.608   0.598   0.625   0.575   0.559   0.513   0.500   0.519   0.522   0.542   0.519   0.506   0.525   0.548   0.540   0.546   0.572   0.630   0.671   0.714   0.698   0.623   0.649   0.634   0.567   0.597   0.569   0.560   0.602
   121.90    0.671   0.671   0.690   0.630   0.656   0.614   0.610   0.625   0.613   0.584   0.541   0.539   0.537   0.522   0.526   0.498   0.472   0.485   0.527   0.514   0.552   0.575   0.584   0.601   0.679   0.703   0.683   0.667   0.624   0.605   0.565   0.607   0.607   0.602   0.610
   117.25    0.719   0.713   0.661   0.654   0.639   0.619   0.659   0.647   0.629   0.596   0.579   0.527   0.568   0.544   0.504   0.523   0.475   0.455   0.478   0.522   0.516   0.524   0.584   0.573   0.659   0.708   0.654   0.673   0.658   0.638   0.626   0.620   0.636   0.564   0.583
   112.60    0.686   0.693   0.701   0.720   0.672   0.630   0.666   0.626   0.668   0.640   0.571   0.562   0.546   0.569   0.519   0.482   0.496   0.457   0.453   0.455   0.488   0.508   0.557   0.587   0.668   0.709   0.654   0.651   0.644   0.696   0.688   0.677   0.633   0.574   0.585
   107.95    0.630   0.689   0.697   0.687   0.699   0.655   0.653   0.617   0.636   0.625   0.560   0.544   0.546   0.571   0.533   0.514   0.515   0.470   0.462   0.472   0.507   0.514   0.569   0.639   0.671   0.694   0.672   0.651   0.701   0.687   0.690   0.647   0.634   0.612   0.535
   103.30    0.646   0.688   0.621   0.676   0.657   0.636   0.596   0.591   0.602   0.592   0.543   0.544   0.578   0.548   0.543   0.496   0.480   0.472   0.498   0.514   0.543   0.528   0.552   0.612   0.659   0.669   0.623   0.658   0.675   0.660   0.627   0.657   0.631   0.568   0.562
    98.65    0.682   0.665   0.689   0.680   0.625   0.565   0.558   0.564   0.597   0.543   0.559   0.568   0.586   0.568   0.501   0.497   0.508   0.529   0.507   0.498   0.519   0.539   0.607   0.595   0.634   0.677   0.637   0.625   0.646   0.643   0.570   0.600   0.649   0.603   0.592
    94.00    0.655   0.650   0.685   0.681   0.672   0.586   0.623   0.597   0.614   0.538   0.522   0.554   0.544   0.546   0.519   0.488   0.502   0.508   0.479   0.538   0.572   0.590   0.606   0.588   0.636   0.647   0.659   0.651   0.638   0.596   0.603   0.545   0.581   0.617   0.610
    89.35    0.640   0.632   0.628   0.637   0.628   0.582   0.628   0.566   0.597   0.578   0.541   0.537   0.528   0.483   0.508   0.499   0.506   0.539   0.512   0.555   0.582   0.602   0.591   0.604   0.631   0.607   0.612   0.592   0.567   0.610   0.601   0.571   0.544   0.576   0.619
    84.70    0.671   0.619   0.558   0.559   0.570   0.588   0.604   0.577   0.580   0.573   0.562   0.515   0.547   0.511   0.491   0.548   0.541   0.531   0.563   0.562   0.567   0.596   0.637   0.612   0.611   0.642   0.658   0.635   0.584   0.603   0.576   0.577   0.583   0.617   0.589
    80.05    0.652   0.572   0.542   0.564   0.577   0.555   0.579   0.581   0.562   0.552   0.533   0.537   0.522   0.546   0.521   0.513   0.578   0.617   0.636   0.589   0.593   0.620   0.612   0.671   0.671   0.630   0.664   0.614   0.560   0.631   0.635   0.607   0.634   0.609   0.562
    75.40    0.646   0.570   0.557   0.587   0.552   0.530   0.547   0.546   0.520   0.558   0.548   0.538   0.566   0.563   0.576   0.542   0.594   0.631   0.668   0.612   0.586   0.602   0.659   0.647   0.660   0.664   0.628   0.642   0.588   0.594   0.639   0.609   0.654   0.616   0.589
    70.75    0.623   0.582   0.601   0.652   0.627   0.584   0.548   0.535   0.544   0.558   0.543   0.557   0.587   0.614   0.574   0.540   0.571   0.616   0.668   0.635   0.633   0.651   0.677   0.632   0.640   0.610   0.615   0.576   0.593   0.594   0.612   0.637   0.657   0.623   0.611
    66.10    0.591   0.596   0.661   0.675   0.645   0.601   0.607   0.598   0.566   0.542   0.500   0.535   0.516   0.587   0.601   0.579   0.562   0.581   0.643   0.677   0.677   0.660   0.662   0.647   0.622   0.661   0.604   0.573   0.595   0.617   0.594   0.643   0.662   0.627   0.565
    61.45    0.598   0.629   0.684   0.650   0.644   0.642   0.589   0.563   0.541   0.533   0.512   0.486   0.526   0.576   0.622   0.594   0.602   0.625   0.647   0.677   0.635   0.632   0.612   0.619   0.620   0.642   0.645   0.613   0.585   0.585   0.590   0.630   0.652   0.587   0.509
    56.80    0.645   0.623   0.683   0.688   0.624   0.669   0.606   0.607   0.595   0.566   0.538   0.528   0.523   0.531   0.579   0.605   0.626   0.631   0.608   0.629   0.666   0.697   0.676   0.664   0.636   0.615   0.628   0.617   0.604   0.563   0.531   0.597   0.619   0.597   0.560
    52.15    0.655   0.606   0.661   0.686   0.657   0.686   0.616   0.635   0.597   0.574   0.554   0.516   0.529   0.483   0.535   0.584   0.613   0.631   0.641   0.671   0.683   0.684   0.676   0.631   0.573   0.594   0.588   0.587   0.563   0.595   0.557   0.570   0.615   0.569   0.541
    47.50    0.613   0.602   0.603   0.667   0.662   0.661   0.617   0.619   0.634   0.623   0.578   0.544   0.503   0.501   0.517   0.583   0.577   0.631   0.679   0.674   0.654   0.673   0.641   0.576   0.523   0.531   0.562   0.534   0.555   0.575   0.605   0.604   0.594   0.611   0.581
    42.85    0.688   0.631   0.694   0.680   0.666   0.642   0.614   0.643   0.577   0.596   0.617   0.617   0.547   0.540   0.572   0.591   0.595   0.637   0.676   0.674   0.654   0.628   0.603   0.588   0.531   0.502   0.499   0.536   0.588   0.565   0.560   0.564   0.599   0.579   0.574
    38.20    0.652   0.639   0.699   0.659   0.664   0.687   0.660   0.612   0.614   0.623   0.616   0.583   0.568   0.589   0.608   0.587   0.637   0.659   0.700   0.618   0.625   0.578   0.553   0.569   0.573   0.499   0.503   0.526   0.582   0.578   0.576   0.570   0.617   0.605   0.546
    33.55    0.684   0.676   0.690   0.658   0.683   0.687   0.704   0.654   0.601   0.663   0.669   0.642   0.630   0.609   0.619   0.606   0.670   0.678   0.660   0.640   0.628   0.618   0.594   0.570   0.523   0.522   0.514   0.498   0.544   0.595   0.599   0.602   0.633   0.600   0.603
    28.90    0.645   0.624   0.616   0.631   0.640   0.627   0.634   0.657   0.639   0.644   0.623   0.581   0.606   0.639   0.629   0.621   0.672   0.659   0.650   0.605   0.574   0.599   0.613   0.573   0.543   0.539   0.553   0.538   0.548   0.553   0.569   0.600   0.566   0.582   0.554
    24.25    0.632   0.626   0.595   0.582   0.641   0.570   0.570   0.602   0.645   0.668   0.632   0.641   0.605   0.617   0.614   0.658   0.629   0.683   0.677   0.649   0.604   0.575   0.613   0.589   0.594   0.564   0.561   0.573   0.539   0.528   0.518   0.564   0.569   0.559   0.539
    19.60    0.595   0.568   0.579   0.581   0.588   0.580   0.589   0.596   0.618   0.633   0.618   0.608   0.574   0.557   0.608   0.635   0.645   0.677   0.651   0.632   0.593   0.611   0.598   0.636   0.657   0.620   0.593   0.574   0.583   0.533   0.532   0.578   0.552   0.538   0.584
    14.95    0.573   0.554   0.541   0.516   0.541   0.610   0.578   0.603   0.563   0.586   0.626   0.631   0.638   0.540   0.584   0.578   0.590   0.616   0.629   0.645   0.636   0.654   0.648   0.594   0.600   0.644   0.632   0.588   0.607   0.565   0.554   0.562   0.568   0.545   0.561
    10.30    0.546   0.513   0.506   0.532   0.577   0.588   0.580   0.554   0.561   0.529   0.572   0.565   0.573   0.545   0.526   0.546   0.565   0.569   0.552   0.626   0.625   0.634   0.554   0.572   0.568   0.606   0.605   0.604   0.577   0.583   0.548   0.524   0.512   0.532   0.583
     5.65    0.559   0.503   0.476   0.514   0.526   0.525   0.496   0.511   0.507   0.521   0.536   0.490   0.519   0.519   0.522   0.516   0.504   0.543   0.583   0.594   0.582   0.603   0.533   0.570   0.607   0.556   0.562   0.597   0.541   0.537   0.521   0.523   0.527   0.537   0.581
     1.00    0.530   0.519   0.471   0.489   0.470   0.487   0.459   0.488   0.465   0.489   0.503   0.502   0.496   0.506   0.463   0.456   0.510   0.513   0.528   0.547   0.536   0.532   0.504   0.535   0.586   0.536   0.551   0.539   0.529   0.510   0.549   0.543   0.542   0.500   0.520

   Height   Standard deviation at grid points for the v component:
   168.40    0.366   0.386   0.376   0.367   0.363   0.382   0.373   0.378   0.382   0.409   0.398   0.373   0.393   0.405   0.403   0.397   0.395   0.390   0.405   0.405   0.395   0.395   0.392   0.385   0.379   0.380   0.387   0.390   0.383   0.408   0.387   0.383   0.366   0.378   0.382
   163.75    0.362   0.361   0.364   0.364   0.365   0.383   0.388   0.397   0.390   0.405   0.397   0.383   0.389   0.398   0.393   0.401   0.401   0.393   0.416   0.410   0.419   0.402   0.392   0.391   0.373   0.388   0.384   0.396   0.411   0.409   0.391   0.381   0.365   0.367   0.381
   159.10    0.361   0.353   0.373   0.371   0.381   0.382   0.398   0.385   0.396   0.405   0.411   0.401   0.382   0.397   0.401   0.395   0.420   0.413   0.391   0.415   0.417   0.401   0.403   0.398   0.378   0.369   0.393   0.404   0.408   0.411   0.376   0.370   0.373   0.364   0.356
   154.45    0.368   0.373   0.386   0.388   0.379   0.384   0.410   0.410   0.395   0.415   0.407   0.386   0.382   0.398   0.411   0.414   0.413   0.408   0.432   0.403   0.418   0.412   0.388   0.393   0.366   0.374   0.395   0.405   0.399   0.400   0.368   0.372   0.381   0.372   0.353
   149.80    0.371   0.378   0.379   0.391   0.390   0.421   0.408   0.423   0.427   0.409   0.394   0.401   0.396   0.392   0.409   0.406   0.420   0.421   0.426   0.412   0.433   0.412   0.398   0.392   0.382   0.391   0.372   0.393   0.382   0.387   0.379   0.354   0.362   0.371   0.372
   145.15    0.398   0.392   0.386   0.386   0.408   0.409   0.408   0.420   0.428   0.413   0.418   0.410   0.395   0.392   0.389   0.407   0.427   0.424   0.419   0.405   0.427   0.420   0.404   0.396   0.386   0.386   0.382   0.393   0.393   0.387   0.369   0.358   0.354   0.364   0.365
   140.50    0.412   0.406   0.422   0.427   0.414   0.415   0.435   0.417   0.422   0.443   0.425   0.410   0.412   0.412   0.401   0.415   0.409   0.410   0.384   0.411   0.419   0.392   0.390   0.370   0.389   0.379   0.398   0.398   0.388   0.375   0.377   0.379   0.345   0.363   0.350
   135.85    0.412   0.430   0.433   0.425   0.413   0.416   0.425   0.424   0.410   0.415   0.410   0.410   0.398   0.407   0.416   0.414   0.417   0.397   0.392   0.403   0.389   0.391   0.387   0.365   0.389   0.393   0.388   0.374   0.368   0.366   0.367   0.365   0.353   0.343   0.344
   131.20    0.396   0.418   0.422   0.415   0.400   0.391   0.411   0.402   0.400   0.402   0.421   0.418   0.428   0.411   0.420   0.408   0.411   0.391   0.388   0.390   0.394   0.392   0.379   0.371   0.358   0.375   0.374   0.370   0.347   0.351   0.367   0.359   0.352   0.334   0.346
   126.55    0.396   0.407   0.409   0.410   0.394   0.376   0.387   0.386   0.385   0.402   0.403   0.413   0.401   0.394   0.409   0.397   0.383   0.384   0.389   0.385   0.384   0.374   0.364   0.368   0.361   0.367   0.372   0.378   0.371   0.381   0.371   0.349   0.356   0.345   0.352
   121.90    0.418   0.387   0.389   0.382   0.379   0.364   0.378   0.373   0.368   0.376   0.392   0.386   0.386   0.394   0.380   0.373   0.384   0.408   0.400   0.390   0.379   0.360   0.350   0.351   0.358   0.364   0.367   0.356   0.385   0.375   0.366   0.358   0.369   0.359   0.351
   117.25    0.417   0.403   0.387   0.369   0.377   0.372   0.358   0.375   0.370   0.361   0.375   0.361   0.383   0.393   0.375   0.363   0.383   0.405   0.403   0.400   0.374   0.351   0.354   0.361   0.363   0.352   0.367   0.348   0.370   0.379   0.376   0.361   0.366   0.353   0.331
   112.60    0.413   0.414   0.390   0.390   0.380   0.359   0.354   0.365   0.354   0.355   0.381   0.367   0.379   0.377   0.359   0.350   0.365   0.393   0.386   0.384   0.370   0.366   0.332   0.345   0.363   0.352   0.358   0.353   0.370   0.377   0.378   0.373   0.360   0.359   0.337
   107.95    0.397   0.400   0.389   0.383   0.377   0.369   0.354   0.346   0.333   0.353   0.369   0.370   0.371   0.372   0.349   0.350   0.354   0.368   0.390   0.353   0.359   0.354   0.341   0.340   0.360   0.362   0.351   0.361   0.382   0.383   0.368   0.380   0.377   0.371   0.359
   103.30    0.403   0.401   0.377   0.385   0.377   0.373   0.354   0.357   0.339   0.353   0.357   0.367   0.370   0.371   0.340   0.349   0.369   0.390   0.375   0.364   0.362   0.361   0.349   0.359   0.361   0.352   0.360   0.369   0.371   0.374   0.372   0.388   0.371   0.365   0.345
    98.65    0.409   0.407   0.383   0.380   0.365   0.381   0.352   0.350   0.344   0.352   0.361   0.368   0.353   0.366   0.363   0.353   0.376   0.373   0.367   0.361   0.361   0.350   0.359   0.350   0.365   0.351   0.347   0.359   0.372   0.368   0.382   0.383   0.369   0.363   0.358
    94.00    0.376   0.391   0.369   0.360   0.378   0.358   0.355   0.344   0.330   0.341   0.353   0.345   0.367   0.365   0.373   0.377   0.376   0.393   0.376   0.366   0.349   0.348   0.361   0.368   0.361   0.352   0.351   0.369   0.374   0.366   0.383   0.377   0.367   0.370   0.389
    89.35    0.357   0.367   0.361   0.337   0.356   0.349   0.349   0.337   0.336   0.333   0.349   0.358   0.364   0.374   0.388   0.397   0.382   0.380   0.375   0.338   0.341   0.350   0.358   0.363   0.355   0.364   0.360   0.367   0.365   0.359   0.367   0.369   0.367   0.376   0.384
    84.70    0.345   0.368   0.352   0.322   0.338   0.347   0.361   0.356   0.345   0.334   0.350   0.353   0.374   0.394   0.399   0.402   0.369   0.377   0.367   0.349   0.343   0.358   0.355   0.361   0.357   0.358   0.367   0.358   0.350   0.370   0.357   0.356   0.371   0.360   0.390
    80.05    0.357   0.356   0.342   0.332   0.340   0.345   0.355   0.338   0.339   0.337   0.331   0.364   0.385   0.406   0.409   0.415   0.392   0.376   0.373   0.358   0.362   0.359   0.353   0.356   0.349   0.366   0.363   0.362   0.357   0.356   0.354   0.368   0.355   0.381   0.393
    75.40    0.345   0.355   0.352   0.348   0.337   0.335   0.355   0.340   0.338   0.343   0.344   0.347   0.378   0.403   0.409   0.404   0.383   0.363   0.373   0.375   0.354   0.368   0.361   0.348   0.355   0.347   0.362   0.351   0.364   0.361   0.369   0.366   0.348   0.358   0.382
    70.75    0.355   0.358   0.340   0.334   0.342   0.339   0.339   0.348   0.343   0.342   0.363   0.353   0.386   0.401   0.390   0.385   0.365   0.352   0.363   0.377   0.380   0.365   0.360   0.346   0.354   0.342   0.344   0.351   0.374   0.364   0.363   0.357   0.353   0.367   0.381
    66.10    0.351   0.347   0.348   0.359   0.338   0.339   0.346   0.336   0.345   0.350   0.340   0.357   0.375   0.379   0.395   0.380   0.374   0.374   0.385   0.384   0.388   0.367   0.354   0.362   0.354   0.347   0.352   0.361   0.374   0.355   0.340   0.333   0.341   0.350   0.369
    61.45    0.352   0.350   0.351   0.348   0.339   0.339   0.335   0.343   0.343   0.348   0.334   0.353   0.360   0.368   0.386   0.389   0.396   0.384   0.388   0.399   0.390   0.392   0.379   0.374   0.354   0.357   0.357   0.366   0.370   0.343   0.329   0.329   0.343   0.349   0.368
    56.80    0.363   0.366   0.354   0.345   0.328   0.335   0.349   0.348   0.344   0.347   0.358   0.367   0.357   0.363   0.371   0.371   0.379   0.377   0.380   0.389   0.404   0.405   0.384   0.380   0.376   0.381   0.355   0.369   0.362   0.342   0.333   0.349   0.356   0.369   0.366
    52.15    0.369   0.369   0.364   0.356   0.356   0.347   0.343   0.346   0.361   0.353   0.367   0.358   0.356   0.350   0.359   0.363   0.367   0.379   0.373   0.369   0.400   0.398   0.367   0.385   0.389   0.385   0.378   0.367   0.353   0.343   0.345   0.358   0.354   0.366   0.356
    47.50    0.393   0.378   0.365   0.359   0.353   0.347   0.349   0.352   0.353   0.354   0.367   0.361   0.374   0.358   0.356   0.374   0.379   0.381   0.354   0.368   0.380   0.375   0.370   0.381   0.392   0.372   0.390   0.366   0.365   0.361   0.375   0.338   0.345   0.359   0.361
    42.85    0.392   0.394   0.386   0.378   0.359   0.372   0.354   0.364   0.372   0.358   0.369   0.362   0.378   0.374   0.361   0.368   0.389   0.375   0.373   0.380   0.385   0.362   0.383   0.381   0.372   0.367   0.382   0.386   0.362   0.368   0.369   0.353   0.342   0.355   0.353
    38.20    0.396   0.395   0.379   0.388   0.373   0.361   0.363   0.351   0.365   0.363   0.340   0.352   0.359   0.370   0.383   0.364   0.377   0.380   0.381   0.384   0.388   0.362   0.361   0.367   0.349   0.347   0.367   0.393   0.369   0.371   0.352   0.339   0.350   0.361   0.372
    33.55    0.382   0.384   0.403   0.394   0.370   0.357   0.376   0.362   0.361   0.351   0.350   0.356   0.364   0.367   0.370   0.360   0.379   0.368   0.390   0.387   0.369   0.360   0.356   0.358   0.335   0.335   0.388   0.382   0.370   0.350   0.351   0.351   0.346   0.359   0.367
    28.90    0.350   0.376   0.388   0.395   0.368   0.367   0.351   0.373   0.364   0.353   0.340   0.350   0.367   0.383   0.379   0.368   0.374   0.389   0.381   0.372   0.371   0.377   0.360   0.359   0.346   0.365   0.388   0.396   0.354   0.354   0.342   0.335   0.339   0.361   0.364
    24.25    0.342   0.365   0.369   0.378   0.375   0.391   0.373   0.376   0.380   0.363   0.346   0.338   0.362   0.371   0.361   0.384   0.383   0.368   0.369   0.371   0.369   0.369   0.368   0.380   0.364   0.375   0.375   0.383   0.386   0.381   0.368   0.348   0.353   0.364   0.374
    19.60    0.340   0.353   0.365   0.336   0.360   0.363   0.379   0.370   0.385   0.362   0.357   0.341   0.353   0.358   0.370   0.371   0.381   0.375   0.357   0.359   0.361   0.358   0.358   0.362   0.363   0.362   0.376   0.365   0.394   0.391   0.378   0.368   0.346   0.349   0.365
    14.95    0.345   0.364   0.349   0.355   0.355   0.367   0.378   0.371   0.375   0.348   0.351   0.355   0.358   0.364   0.361   0.372   0.392   0.371   0.365   0.353   0.364   0.340   0.333   0.331   0.340   0.370   0.352   0.379   0.377   0.373   0.373   0.363   0.345   0.356   0.374
    10.30    0.361   0.348   0.355   0.360   0.372   0.375   0.386   0.374   0.376   0.354   0.347   0.345   0.356   0.364   0.361   0.372   0.399   0.371   0.358   0.374   0.373   0.352   0.324   0.326   0.345   0.338   0.344   0.381   0.374   0.361   0.361   0.367   0.378   0.381   0.391
     5.65    0.348   0.358   0.350   0.357   0.369   0.392   0.381   0.357   0.364   0.349   0.353   0.357   0.362   0.367   0.369   0.369   0.387   0.390   0.369   0.378   0.356   0.359   0.342   0.334   0.343   0.360   0.359   0.363   0.369   0.371   0.371   0.388   0.396   0.417   0.410
     1.00    0.356   0.343   0.360   0.347   0.354   0.377   0.357   0.346   0.358   0.354   0.365   0.367   0.362   0.372   0.372   0.362   0.357   0.378   0.363   0.369   0.362   0.351   0.343   0.353   0.345   0.358   0.380   0.372   0.388   0.389   0.382   0.404   0.413   0.417   0.409

   Height   Standard deviation at grid points for the w component:
   168.40    0.239   0.243   0.243   0.246   0.236   0.243   0.247   0.240   0.235   0.233   0.224   0.229   0.222   0.223   0.234   0.239   0.235   0.246   0.242   0.235   0.226   0.225   0.224   0.221   0.219   0.231   0.238   0.231   0.222   0.221   0.231   0.237   0.243   0.248   0.238
   163.75    0.238   0.248   0.234   0.246   0.237   0.239   0.239   0.226   0.220   0.224   0.220   0.229   0.227   0.220   0.222   0.232   0.242   0.237   0.235   0.230   0.231   0.219   0.219   0.230   0.224   0.230   0.235   0.235   0.227   0.219   0.235   0.242   0.242   0.247   0.244
   159.10    0.241   0.236   0.237   0.246   0.238   0.241   0.238   0.234   0.220   0.221   0.226   0.231   0.221   0.230   0.229   0.223   0.224   0.222   0.224   0.225   0.229   0.223   0.222   0.219   0.224   0.229   0.235   0.236   0.230   0.225   0.237   0.245   0.245   0.242   0.243
   154.45    0.231   0.237   0.231   0.236   0.237   0.237   0.226   0.220   0.220   0.225   0.219   0.221   0.220   0.217   0.223   0.223   0.215   0.213   0.223   0.226   0.227   0.227   0.223   0.220   0.224   0.229   0.237   0.234   0.233   0.231   0.230   0.240   0.235   0.236   0.247
   149.80    0.234   0.240   0.233   0.229   0.225   0.225   0.220   0.224   0.224   0.217   0.226   0.231   0.225   0.221   0.222   0.215   0.214   0.213   0.208   0.219   0.226   0.223   0.228   0.226   0.217   0.219   0.233   0.233   0.229   0.238   0.229   0.234   0.229   0.233   0.239
   145.15    0.232   0.233   0.237   0.230   0.232   0.220   0.208   0.221   0.221   0.220   0.224   0.230   0.230   0.223   0.216   0.216   0.218   0.215   0.213   0.223   0.223   0.226   0.225   0.218   0.214   0.210   0.226   0.228   0.227   0.227   0.230   0.230   0.224   0.226   0.237
   140.50    0.237   0.231   0.230   0.220   0.216   0.215   0.212   0.218   0.227   0.231   0.226   0.230   0.222   0.223   0.218   0.220   0.217   0.213   0.214   0.218   0.217   0.228   0.219   0.228   0.217   0.226   0.215   0.222   0.226   0.228   0.232   0.225   0.227   0.226   0.227
   135.85    0.238   0.231   0.221   0.219   0.211   0.214   0.219   0.228   0.229   0.236   0.227   0.231   0.229   0.228   0.220   0.219   0.214   0.214   0.217   0.214   0.217   0.227   0.225   0.226   0.219   0.222   0.216   0.219   0.217   0.218   0.225   0.224   0.225   0.226   0.223
   131.20    0.238   0.234   0.229   0.229   0.227   0.218   0.223   0.226   0.230   0.225   0.237   0.232   0.232   0.222   0.209   0.213   0.216   0.216   0.214   0.218   0.218   0.220   0.214   0.218   0.222   0.219   0.211   0.218   0.224   0.227   0.223   0.224   0.221   0.223   0.226
   126.55    0.239   0.229   0.228   0.230   0.225   0.221   0.222   0.223   0.223   0.218   0.225   0.227   0.233   0.225   0.217   0.219   0.218   0.220   0.219   0.225   0.222   0.216   0.217   0.217   0.218   0.217   0.218   0.225   0.229   0.228   0.223   0.215   0.218   0.226   0.225
   121.90    0.229   0.225   0.226   0.224   0.226   0.223   0.231   0.232   0.230   0.226   0.225   0.222   0.222   0.227   0.216   0.222   0.223   0.226   0.218   0.227   0.218   0.216   0.219   0.220   0.218   0.224   0.222   0.226   0.230   0.229   0.221   0.214   0.221   0.232   0.233
   117.25    0.228   0.229   0.226   0.227   0.231   0.233   0.232   0.229   0.230   0.219   0.222   0.220   0.222   0.220   0.221   0.222   0.219   0.222   0.214   0.223   0.231   0.223   0.215   0.212   0.224   0.228   0.222   0.230   0.237   0.232   0.221   0.221   0.217   0.225   0.229
   112.60    0.235   0.242   0.243   0.238   0.239   0.231   0.231   0.224   0.230   0.223   0.218   0.231   0.228   0.216   0.215   0.215   0.224   0.221   0.216   0.223   0.227   0.221   0.222   0.213   0.218   0.224   0.228   0.229   0.236   0.241   0.232   0.229   0.236   0.228   0.230
   107.95    0.250   0.253   0.261   0.250   0.247   0.243   0.233   0.230   0.230   0.217   0.218   0.228   0.213   0.215   0.219   0.226   0.229   0.226   0.221   0.223   0.227   0.223   0.220   0.211   0.216   0.228   0.231   0.224   0.234   0.237   0.237   0.240   0.240   0.234   0.232
   103.30    0.249   0.247   0.250   0.252   0.235   0.241   0.233   0.237   0.235   0.223   0.220   0.217   0.219   0.218   0.223   0.227   0.230   0.229   0.222   0.224   0.224   0.214   0.226   0.225   0.220   0.219   0.222   0.224   0.231   0.227   0.241   0.239   0.249   0.241   0.233
    98.65    0.243   0.241   0.240   0.246   0.243   0.239   0.238   0.237   0.232   0.233   0.222   0.219   0.214   0.225   0.224   0.222   0.224   0.229   0.215   0.219   0.218   0.214   0.212   0.217   0.218   0.216   0.216   0.223   0.222   0.237   0.243   0.238   0.244   0.242   0.231
    94.00    0.236   0.234   0.236   0.227   0.226   0.232   0.235   0.238   0.243   0.243   0.225   0.223   0.218   0.216   0.220   0.222   0.226   0.228   0.229   0.222   0.218   0.222   0.217   0.224   0.230   0.225   0.225   0.228   0.238   0.232   0.242   0.237   0.238   0.238   0.226
    89.35    0.237   0.240   0.234   0.222   0.225   0.230   0.233   0.244   0.238   0.233   0.230   0.221   0.226   0.221   0.214   0.224   0.228   0.228   0.223   0.232   0.221   0.224   0.231   0.225   0.224   0.222   0.227   0.227   0.235   0.229   0.239   0.250   0.243   0.234   0.240
    84.70    0.244   0.242   0.236   0.228   0.236   0.234   0.238   0.249   0.244   0.241   0.234   0.230   0.229   0.229   0.224   0.217   0.221   0.219   0.229   0.233   0.228   0.224   0.230   0.234   0.229   0.245   0.231   0.228   0.226   0.233   0.239   0.242   0.244   0.244   0.237
    80.05    0.238   0.242   0.235   0.230   0.243   0.250   0.236   0.240   0.241   0.236   0.238   0.237   0.235   0.229   0.224   0.228   0.219   0.220   0.225   0.238   0.226   0.222   0.226   0.230   0.237   0.239   0.237   0.234   0.236   0.237   0.229   0.237   0.242   0.243   0.243
    75.40    0.239   0.237   0.234   0.242   0.246   0.257   0.243   0.243   0.240   0.229   0.230   0.230   0.234   0.238   0.234   0.235   0.232   0.229   0.225   0.229   0.226   0.226   0.237   0.236   0.227   0.228   0.233   0.238   0.230   0.232   0.238   0.230   0.236   0.237   0.234
    70.75    0.236   0.244   0.242   0.245   0.246   0.255   0.253   0.239   0.239   0.239   0.235   0.236   0.236   0.234   0.238   0.245   0.232   0.228   0.226   0.222   0.221   0.224   0.226   0.226   0.226   0.225   0.227   0.235   0.233   0.234   0.238   0.229   0.236   0.242   0.221
    66.10    0.235   0.244   0.249   0.254   0.250   0.254   0.245   0.242   0.233   0.239   0.235   0.241   0.238   0.238   0.239   0.228   0.226   0.231   0.224   0.226   0.224   0.223   0.228   0.223   0.227   0.224   0.224   0.226   0.234   0.235   0.243   0.241   0.239   0.238   0.227
    61.45    0.243   0.241   0.248   0.258   0.250   0.249   0.249   0.252   0.249   0.244   0.244   0.241   0.237   0.236   0.239   0.230   0.230   0.228   0.223   0.221   0.224   0.225   0.221   0.219   0.208   0.215   0.227   0.224   0.221   0.234   0.249   0.242   0.232   0.237   0.227
    56.80    0.237   0.246   0.252   0.256   0.251   0.245   0.247   0.255   0.251   0.252   0.250   0.242   0.242   0.245   0.233   0.230   0.226   0.222   0.234   0.223   0.222   0.222   0.220   0.212   0.205   0.212   0.218   0.233   0.234   0.237   0.243   0.235   0.226   0.236   0.228
    52.15    0.247   0.251   0.255   0.250   0.250   0.259   0.257   0.254   0.252   0.251   0.257   0.251   0.249   0.248   0.240   0.228   0.219   0.229   0.235   0.229   0.218   0.224   0.209   0.213   0.212   0.231   0.226   0.230   0.233   0.234   0.237   0.236   0.227   0.227   0.230
    47.50    0.245   0.250   0.256   0.242   0.234   0.246   0.248   0.250   0.247   0.244   0.251   0.248   0.239   0.248   0.245   0.232   0.230   0.228   0.230   0.230   0.229   0.223   0.217   0.211   0.223   0.231   0.227   0.234   0.232   0.228   0.239   0.234   0.223   0.230   0.236
    42.85    0.238   0.251   0.247   0.244   0.252   0.238   0.246   0.247   0.245   0.245   0.241   0.240   0.242   0.245   0.229   0.231   0.229   0.229   0.229   0.228   0.224   0.227   0.219   0.219   0.227   0.228   0.230   0.233   0.229   0.232   0.236   0.232   0.234   0.230   0.235
    38.20    0.252   0.251   0.247   0.246   0.244   0.239   0.240   0.242   0.244   0.243   0.239   0.245   0.243   0.234   0.222   0.228   0.231   0.225   0.223   0.224   0.222   0.217   0.226   0.229   0.236   0.238   0.232   0.233   0.226   0.230   0.233   0.230   0.224   0.229   0.230
    33.55    0.242   0.245   0.246   0.244   0.236   0.235   0.250   0.254   0.242   0.242   0.238   0.240   0.238   0.233   0.223   0.221   0.233   0.226   0.224   0.228   0.231   0.219   0.227   0.226   0.226   0.231   0.225   0.233   0.224   0.231   0.232   0.241   0.228   0.234   0.231
    28.90    0.242   0.243   0.244   0.248   0.236   0.233   0.236   0.242   0.250   0.242   0.248   0.253   0.248   0.240   0.228   0.219   0.228   0.218   0.229   0.223   0.226   0.232   0.228   0.230   0.223   0.227   0.235   0.233   0.233   0.235   0.235   0.232   0.235   0.232   0.234
    24.25    0.239   0.243   0.246   0.242   0.236   0.241   0.233   0.241   0.250   0.257   0.246   0.240   0.247   0.251   0.239   0.233   0.221   0.215   0.222   0.223   0.223   0.221   0.226   0.224   0.223   0.230   0.232   0.234   0.235   0.233   0.236   0.244   0.238   0.235   0.235
    19.60    0.232   0.238   0.236   0.240   0.243   0.236   0.238   0.241   0.244   0.244   0.244   0.248   0.240   0.237   0.231   0.228   0.229   0.221   0.215   0.224   0.225   0.223   0.224   0.228   0.219   0.227   0.232   0.234   0.233   0.233   0.242   0.240   0.241   0.237   0.233
    14.95    0.234   0.236   0.232   0.237   0.240   0.244   0.235   0.238   0.239   0.239   0.249   0.249   0.234   0.232   0.234   0.224   0.220   0.226   0.222   0.218   0.228   0.219   0.226   0.222   0.226   0.226   0.229   0.237   0.234   0.234   0.235   0.239   0.236   0.235   0.234
    10.30    0.236   0.231   0.232   0.232   0.242   0.244   0.238   0.242   0.235   0.236   0.237   0.228   0.229   0.230   0.229   0.217   0.219   0.221   0.225   0.223   0.220   0.227   0.222   0.225   0.220   0.229   0.231   0.230   0.234   0.229   0.224   0.236   0.235   0.223   0.233
     5.65    0.232   0.226   0.225   0.230   0.241   0.237   0.235   0.236   0.230   0.240   0.231   0.229   0.228   0.216   0.224   0.217   0.220   0.222   0.224   0.217   0.218   0.221   0.220   0.214   0.223   0.231   0.230   0.231   0.226   0.221   0.220   0.223   0.228   0.220   0.225
     1.00    0.233   0.233   0.229   0.232   0.242   0.237   0.237   0.233   0.225   0.231   0.236   0.226   0.223   0.219   0.221   0.226   0.218   0.217   0.227   0.219   0.225   0.224   0.216   0.226   0.219   0.225   0.220   0.229   0.220   0.220   0.218   0.221   0.229   0.223   0.223

   Mean standard deviation across all grid points:
      u component:    0.584 m/s
      v component:    0.372 m/s
      w component:    0.230 m/s


U-component (X) statistics from the interpolated hub point:

   Mean =   9.9913 m/s
   TI   =   5.3903 %


Processing complete.  6097.8 CPU seconds used.
