
This summary file was generated by TurbSim (from OpenFAST-v3.5.3) on 19-Apr-2025 at 20:12:48.


Runtime Options:

-228636811  Random seed #1
    RANLUX  Type of random number generator
         F  Output binary HH turbulence parameters?
         F  Output formatted turbulence parameters?
         F  Output AeroDyn HH files?
         T  Output AeroDyn FF files?
         F  Output BLADED FF files?
         F  Output tower data?
         F  Output HAWC FF files?
         F  Output formatted FF files?
         T  Output coherent turbulence time step file?
 0 -  NONE  IEC turbulence models scaled to exact specified standard deviation


Turbine/Model Specifications:

        39  Vertical grid-point matrix dimension
       193  Horizontal grid-point matrix dimension
     0.250  Time step [seconds]
   900.000  Analysis time [seconds]
   900.000  Usable output time [seconds]
   177.700  Hub height [m]
   353.400  Grid height [m]
  1785.600  Grid width [m]
     0.000  Vertical flow angle [degrees]
     0.000  Horizontal flow angle [degrees]


Meteorological Boundary Conditions:

    IECKAI  IEC Kaimal spectral model
         1  IEC standard: IEC 61400-1 Ed. 3: 2005
     2.500  Percent turbulence intensity, IEC 61400-1 Ed. 3: 2005
       NTM  IEC Normal Turbulence Model
       N/A  IEC Extreme Turbulence Model (ETM) "c" parameter [m/s]
       USR  Wind profile type
    90.000  Reference height [m]
       N/A  Reference wind speed [m/s]
       N/A  Jet height [m]
       N/A  Power law exponent
     0.030  Surface roughness length [m]


Non-IEC Meteorological Boundary Conditions:

       N/A  Site latitude [degrees]
       N/A  Gradient Richardson number
       N/A  Friction or shear velocity [m/s]
       N/A  Mixing layer depth [m]
       N/A  Mean hub u'w' Reynolds stress
       N/A  Mean hub u'v' Reynolds stress
       N/A  Mean hub v'w' Reynolds stress


Spatial Coherence Models:

       IEC  u-component coherence model
       IEC  v-component coherence model
       IEC  w-component coherence model
(   12.000, 0.353E-03)  u-component coherence parameters
(   12.000, 0.353E-03)  v-component coherence parameters
(   12.000, 0.353E-03)  w-component coherence parameters
       N/A  Coherence exponent


User-Defined Profiles:

  Height   Wind Speed   Horizontal Angle
   (m)        (m/s)          (deg)      
  ------   ----------   ----------------
  353.40      10.00         318.19
  334.80      10.00         321.14
  316.20      10.00         324.10
  297.60      10.00         327.05
  279.00      10.00         330.00
  260.40      10.00         332.95
  241.80      10.00         335.90
  223.20      10.00         338.86
  204.60      10.00         341.81
  186.00      10.00         344.76
  167.40      10.00         347.71
  148.80      10.00         350.67
  130.20      10.00         353.62
  111.60      10.00         356.57
   93.00      10.00         359.52
   74.40      10.00           2.48
   55.80      10.00           5.43
   37.20      10.00           8.38
   18.60      10.00          11.33
    0.00      10.00          14.29


You have requested that the following file(s) be generated:

   /kfs3/scratch/agupta/Projects/RL_Incubator/FinalRuns_Veer/Seed4/./FFSim_Seed4/Cond00_v10.0_PL0.12_TI2.5/Seed_1/Low.bts (AeroDyn/TurbSim full-field wind file)


Turbulence Simulation Scaling Parameter Summary:

   Turbulence model used                            =  IEC Kaimal
   Turbulence characteristic                        =  User-specified
   IEC standard                                     =  IEC 61400-1 Ed. 3: 2005
   Mean wind speed at hub height                    =   10.000 m/s
   Characteristic value of standard deviation       =    0.250 m/s
   Turbulence scale                                 =   42.000 m
   u-component integral scale                       =  340.200 m
   Coherency scale                                  =  340.200 m
   Characteristic value of hub turbulence intensity =    2.500%
   Gradient Richardson number                       =    0.000

   Wind profile type                                =  Linear interpolation of user-defined profile
   Equivalent power law exponent (upper rotor disk) =    0.000
   Mean shear across rotor disk                     =    0.000 (m/s)/m
   Assumed rotor diameter                           =  353.400 m
   Surface roughness length                         =    0.030 m

   Nyquist frequency of turbulent wind field        =    2.000 Hz

   Number of time steps in the FFT                  =     3600
   Number of time steps output                      =     3600
   Number of points simulated                       =     7527


Mean Flow Angles:

   Vertical   =   0.0 degrees
   Horizontal =   0.0 degrees

Mean Wind Speed Profile:

   Height    Wind Speed   Horizontal Angle  Vertical Angle  U-comp (X)   V-comp (Y)   W-comp (Z)
     (m)        (m/s)         (degrees)       (degrees)       (m/s)        (m/s)        (m/s)   
   ------    ----------   ----------------  --------------  ----------   ----------   ----------
    354.4       10.00          318.19            0.00          7.45        -6.67         0.00
    345.1       10.00          319.51            0.00          7.60        -6.49         0.00
    335.8       10.00          320.98            0.00          7.77        -6.30         0.00
    326.5       10.00          322.46            0.00          7.93        -6.09         0.00
    317.2       10.00          323.94            0.00          8.08        -5.89         0.00
    307.9       10.00          325.41            0.00          8.23        -5.68         0.00
    298.6       10.00          326.89            0.00          8.38        -5.46         0.00
    289.3       10.00          328.37            0.00          8.51        -5.25         0.00
    280.0       10.00          329.84            0.00          8.65        -5.02         0.00
    270.7       10.00          331.32            0.00          8.77        -4.80         0.00
    261.4       10.00          332.79            0.00          8.89        -4.57         0.00
    252.1       10.00          334.27            0.00          9.01        -4.34         0.00
    242.8       10.00          335.75            0.00          9.12        -4.11         0.00
    233.5       10.00          337.22            0.00          9.22        -3.87         0.00
    224.2       10.00          338.70            0.00          9.32        -3.63         0.00
    214.9       10.00          340.17            0.00          9.41        -3.39         0.00
    205.6       10.00          341.65            0.00          9.49        -3.15         0.00
    196.3       10.00          343.13            0.00          9.57        -2.90         0.00
    187.0       10.00          344.60            0.00          9.64        -2.66         0.00
    177.7       10.00          346.08            0.00          9.71        -2.41         0.00
    168.4       10.00          347.56            0.00          9.77        -2.15         0.00
    159.1       10.00          349.03            0.00          9.82        -1.90         0.00
    149.8       10.00          350.51            0.00          9.86        -1.65         0.00
    140.5       10.00          351.98            0.00          9.90        -1.39         0.00
    131.2       10.00          353.46            0.00          9.93        -1.14         0.00
    121.9       10.00          354.94            0.00          9.96        -0.88         0.00
    112.6       10.00          356.41            0.00          9.98        -0.63         0.00
    103.3       10.00          357.89            0.00          9.99        -0.37         0.00
     94.0       10.00          359.37            0.00         10.00        -0.11         0.00
     84.7       10.00          360.84            0.00         10.00         0.15         0.00
     75.4       10.00          362.32            0.00          9.99         0.40         0.00
     66.1       10.00            3.79            0.00          9.98         0.66         0.00
     56.8       10.00            5.27            0.00          9.96         0.92         0.00
     47.5       10.00            6.75            0.00          9.93         1.17         0.00
     38.2       10.00            8.22            0.00          9.90         1.43         0.00
     28.9       10.00            9.70            0.00          9.86         1.68         0.00
     19.6       10.00           11.17            0.00          9.81         1.94         0.00
     10.3       10.00           12.65            0.00          9.76         2.19         0.00
      1.0       10.00           14.13            0.00          9.70         2.44         0.00


Harvested Random Seeds after Generation of the Random Numbers:

    377667225 K 1
            0 K 2


Hub-Height Simulated Turbulence Statistical Summary:

   Type of Wind        Min (m/s)   Mean (m/s)    Max (m/s)  Sigma (m/s)       TI (%)
   ----------------    ---------   ----------    ---------  -----------       ------
   Longitudinal (u)         9.13        10.00        10.78        0.253        2.530
   Lateral (v)             -0.60         0.00         0.74        0.194        1.935
   Vertical (w)            -0.40         0.00         0.35        0.113        1.134
   U component              8.77         9.71        10.46        0.257        2.645
   V component             -2.94        -2.41        -1.71        0.189        1.943
   W component             -0.40         0.00         0.35        0.113        1.168
   Horizontal (U&V)         9.14        10.00        10.78        0.253        2.528
   Total                    9.14        10.00        10.78        0.253        2.527

                       Min Reynolds     Mean Reynolds    Max Reynolds    Correlation
   Product             Stress (m/s)^2   Stress (m/s)^2   Stress (m/s)^2  Coefficient
   ----------------    --------------   --------------   --------------  -----------
   u'w'                     -0.208             0.001             0.211         0.038
   u'v'                     -0.258             0.007             0.370         0.149
   v'w'                     -0.157            -0.001             0.124        -0.031


   Friction Velocity (Ustar)  =      0.033 m/s
   Maximum Instantaneous TKE  =      0.450 (m/s)^2
   Maximum Instantaneous CTKE =      0.215 (m/s)^2


Grid Point Variance Summary:

   Y-coord -892.80 -883.50 -874.20 -864.90 -855.60 -846.30 -837.00 -827.70 -818.40 -809.10 -799.80 -790.50 -781.20 -771.90 -762.60 -753.30 -744.00 -734.70 -725.40 -716.10 -706.80 -697.50 -688.20 -678.90 -669.60 -660.30 -651.00 -641.70 -632.40 -623.10 -613.80 -604.50 -595.20 -585.90 -576.60 -567.30 -558.00 -548.70 -539.40 -530.10 -520.80 -511.50 -502.20 -492.90 -483.60 -474.30 -465.00 -455.70 -446.40 -437.10 -427.80 -418.50 -409.20 -399.90 -390.60 -381.30 -372.00 -362.70 -353.40 -344.10 -334.80 -325.50 -316.20 -306.90 -297.60 -288.30 -279.00 -269.70 -260.40 -251.10 -241.80 -232.50 -223.20 -213.90 -204.60 -195.30 -186.00 -176.70 -167.40 -158.10 -148.80 -139.50 -130.20 -120.90 -111.60 -102.30  -93.00  -83.70  -74.40  -65.10  -55.80  -46.50  -37.20  -27.90  -18.60   -9.30    0.00    9.30   18.60   27.90   37.20   46.50   55.80   65.10   74.40   83.70   93.00  102.30  111.60  120.90  130.20  139.50  148.80  158.10  167.40  176.70  186.00  195.30  204.60  213.90  223.20  232.50  241.80  251.10  260.40  269.70  279.00  288.30  297.60  306.90  316.20  325.50  334.80  344.10  353.40  362.70  372.00  381.30  390.60  399.90  409.20  418.50  427.80  437.10  446.40  455.70  465.00  474.30  483.60  492.90  502.20  511.50  520.80  530.10  539.40  548.70  558.00  567.30  576.60  585.90  595.20  604.50  613.80  623.10  632.40  641.70  651.00  660.30  669.60  678.90  688.20  697.50  706.80  716.10  725.40  734.70  744.00  753.30  762.60  771.90  781.20  790.50  799.80  809.10  818.40  827.70  837.00  846.30  855.60  864.90  874.20  883.50  892.80

   Height   Standard deviation at grid points for the u component:
   354.40    0.219   0.217   0.238   0.236   0.245   0.247   0.235   0.217   0.219   0.215   0.217   0.223   0.230   0.231   0.248   0.240   0.236   0.251   0.249   0.239   0.249   0.260   0.254   0.245   0.231   0.219   0.226   0.254   0.263   0.261   0.245   0.243   0.245   0.244   0.225   0.228   0.243   0.235   0.241   0.223   0.227   0.247   0.216   0.240   0.245   0.246   0.255   0.237   0.243   0.244   0.249   0.242   0.238   0.231   0.231   0.223   0.222   0.238   0.228   0.219   0.208   0.205   0.226   0.210   0.211   0.230   0.215   0.224   0.216   0.206   0.225   0.238   0.222   0.218   0.233   0.228   0.218   0.216   0.228   0.240   0.243   0.270   0.258   0.232   0.241   0.226   0.226   0.254   0.236   0.234   0.229   0.233   0.248   0.252   0.259   0.253   0.254   0.245   0.241   0.234   0.225   0.224   0.212   0.224   0.210   0.210   0.207   0.214   0.196   0.206   0.191   0.204   0.200   0.216   0.216   0.223   0.218   0.214   0.222   0.241   0.246   0.240   0.235   0.245   0.221   0.202   0.201   0.186   0.210   0.206   0.208   0.205   0.189   0.200   0.203   0.193   0.194   0.200   0.219   0.241   0.245   0.248   0.234   0.243   0.249   0.232   0.229   0.255   0.251   0.241   0.252   0.225   0.227   0.214   0.228   0.219   0.242   0.257   0.261   0.262   0.273   0.274   0.284   0.292   0.299   0.303   0.329   0.302   0.331   0.347   0.341   0.327   0.298   0.313   0.317   0.306   0.311   0.292   0.286   0.283   0.289   0.283   0.288   0.296   0.283   0.283   0.297   0.296   0.291   0.270   0.274   0.258   0.271
   345.10    0.227   0.230   0.238   0.233   0.233   0.241   0.233   0.220   0.211   0.228   0.241   0.221   0.230   0.245   0.243   0.254   0.241   0.262   0.262   0.248   0.246   0.229   0.241   0.252   0.243   0.236   0.250   0.254   0.265   0.263   0.251   0.252   0.244   0.244   0.251   0.229   0.223   0.230   0.227   0.223   0.218   0.222   0.224   0.234   0.240   0.246   0.267   0.253   0.242   0.234   0.228   0.254   0.232   0.227   0.241   0.231   0.236   0.253   0.233   0.217   0.196   0.204   0.212   0.212   0.222   0.222   0.225   0.222   0.216   0.207   0.227   0.226   0.219   0.223   0.232   0.232   0.226   0.237   0.238   0.220   0.247   0.255   0.246   0.240   0.239   0.220   0.230   0.237   0.238   0.237   0.241   0.221   0.239   0.237   0.245   0.255   0.262   0.254   0.235   0.229   0.218   0.210   0.201   0.207   0.208   0.193   0.194   0.191   0.189   0.195   0.195   0.210   0.210   0.218   0.222   0.229   0.229   0.229   0.235   0.246   0.252   0.245   0.234   0.235   0.222   0.207   0.200   0.186   0.196   0.209   0.207   0.208   0.207   0.205   0.215   0.192   0.192   0.215   0.211   0.231   0.242   0.231   0.236   0.246   0.242   0.216   0.226   0.235   0.223   0.237   0.241   0.234   0.223   0.238   0.241   0.256   0.252   0.269   0.272   0.284   0.283   0.274   0.272   0.280   0.297   0.292   0.306   0.303   0.325   0.348   0.346   0.329   0.305   0.305   0.337   0.323   0.305   0.308   0.314   0.288   0.290   0.295   0.307   0.302   0.293   0.284   0.289   0.277   0.270   0.262   0.271   0.268   0.276
   335.80    0.232   0.220   0.217   0.218   0.220   0.228   0.233   0.214   0.209   0.232   0.235   0.247   0.243   0.240   0.245   0.252   0.253   0.261   0.268   0.254   0.233   0.252   0.257   0.253   0.255   0.251   0.256   0.252   0.248   0.259   0.254   0.252   0.242   0.263   0.245   0.232   0.220   0.203   0.194   0.207   0.228   0.224   0.223   0.208   0.231   0.241   0.247   0.247   0.235   0.235   0.219   0.231   0.232   0.236   0.244   0.246   0.249   0.241   0.218   0.210   0.211   0.205   0.213   0.209   0.216   0.211   0.219   0.234   0.223   0.238   0.226   0.201   0.220   0.231   0.232   0.225   0.225   0.231   0.228   0.226   0.226   0.248   0.245   0.232   0.219   0.222   0.224   0.218   0.220   0.239   0.230   0.227   0.228   0.230   0.248   0.249   0.245   0.246   0.233   0.216   0.216   0.209   0.199   0.184   0.208   0.196   0.193   0.199   0.204   0.190   0.193   0.205   0.212   0.213   0.209   0.220   0.246   0.255   0.255   0.249   0.246   0.235   0.236   0.245   0.224   0.210   0.217   0.204   0.199   0.197   0.198   0.207   0.212   0.222   0.215   0.212   0.201   0.222   0.213   0.222   0.228   0.231   0.246   0.232   0.238   0.225   0.226   0.236   0.244   0.236   0.245   0.230   0.250   0.242   0.251   0.251   0.265   0.265   0.264   0.290   0.292   0.274   0.265   0.283   0.314   0.304   0.300   0.312   0.312   0.328   0.319   0.322   0.334   0.339   0.351   0.353   0.322   0.318   0.300   0.306   0.300   0.303   0.305   0.286   0.294   0.309   0.295   0.286   0.267   0.281   0.273   0.271   0.272
   326.50    0.217   0.222   0.211   0.221   0.217   0.214   0.202   0.211   0.204   0.211   0.233   0.248   0.255   0.239   0.236   0.229   0.247   0.270   0.264   0.259   0.253   0.247   0.269   0.268   0.272   0.254   0.250   0.254   0.257   0.275   0.274   0.256   0.243   0.257   0.263   0.226   0.201   0.189   0.192   0.196   0.212   0.221   0.239   0.216   0.222   0.232   0.234   0.227   0.226   0.231   0.212   0.229   0.228   0.229   0.245   0.271   0.251   0.237   0.219   0.216   0.210   0.218   0.211   0.202   0.201   0.204   0.227   0.232   0.229   0.237   0.225   0.217   0.225   0.230   0.229   0.229   0.225   0.220   0.217   0.228   0.222   0.227   0.228   0.227   0.229   0.215   0.225   0.229   0.232   0.227   0.232   0.223   0.231   0.238   0.236   0.247   0.238   0.247   0.228   0.220   0.218   0.226   0.208   0.189   0.197   0.199   0.194   0.201   0.205   0.205   0.196   0.197   0.200   0.203   0.219   0.221   0.229   0.238   0.237   0.241   0.238   0.237   0.244   0.244   0.225   0.244   0.236   0.219   0.201   0.192   0.197   0.212   0.216   0.218   0.226   0.220   0.214   0.220   0.196   0.199   0.216   0.227   0.223   0.223   0.203   0.213   0.230   0.232   0.237   0.232   0.231   0.230   0.231   0.250   0.252   0.259   0.269   0.271   0.269   0.274   0.287   0.275   0.269   0.287   0.297   0.301   0.298   0.330   0.328   0.299   0.299   0.313   0.331   0.336   0.325   0.325   0.319   0.308   0.310   0.324   0.325   0.329   0.316   0.298   0.303   0.314   0.300   0.294   0.283   0.277   0.295   0.292   0.272
   317.20    0.215   0.217   0.207   0.217   0.224   0.229   0.218   0.202   0.219   0.220   0.219   0.236   0.256   0.267   0.239   0.241   0.247   0.257   0.258   0.258   0.262   0.257   0.264   0.269   0.257   0.253   0.248   0.241   0.265   0.278   0.261   0.240   0.239   0.256   0.258   0.219   0.198   0.194   0.181   0.180   0.185   0.205   0.216   0.215   0.209   0.219   0.229   0.230   0.221   0.232   0.224   0.227   0.222   0.223   0.233   0.259   0.255   0.226   0.224   0.213   0.207   0.218   0.208   0.212   0.209   0.205   0.216   0.223   0.215   0.212   0.218   0.217   0.227   0.222   0.233   0.224   0.227   0.237   0.218   0.214   0.218   0.233   0.233   0.216   0.216   0.217   0.229   0.230   0.222   0.233   0.232   0.250   0.226   0.226   0.242   0.235   0.238   0.243   0.223   0.246   0.220   0.224   0.214   0.215   0.224   0.219   0.209   0.201   0.202   0.209   0.209   0.214   0.203   0.214   0.233   0.234   0.227   0.238   0.247   0.248   0.252   0.251   0.245   0.247   0.244   0.245   0.239   0.224   0.197   0.188   0.193   0.200   0.205   0.226   0.229   0.225   0.220   0.205   0.212   0.214   0.216   0.232   0.225   0.222   0.211   0.225   0.240   0.233   0.218   0.232   0.235   0.228   0.239   0.251   0.232   0.227   0.248   0.259   0.275   0.276   0.278   0.260   0.284   0.289   0.283   0.285   0.288   0.308   0.314   0.305   0.286   0.308   0.314   0.322   0.309   0.312   0.313   0.302   0.298   0.313   0.309   0.321   0.319   0.316   0.299   0.300   0.318   0.322   0.293   0.304   0.299   0.309   0.276
   307.90    0.235   0.226   0.213   0.212   0.213   0.212   0.212   0.218   0.214   0.216   0.229   0.234   0.242   0.277   0.256   0.253   0.275   0.249   0.258   0.260   0.266   0.271   0.272   0.281   0.271   0.244   0.257   0.251   0.265   0.245   0.253   0.247   0.222   0.237   0.228   0.213   0.196   0.188   0.188   0.183   0.190   0.199   0.192   0.201   0.210   0.233   0.235   0.235   0.235   0.237   0.240   0.245   0.232   0.231   0.224   0.238   0.227   0.207   0.226   0.231   0.233   0.213   0.215   0.206   0.208   0.196   0.203   0.211   0.221   0.216   0.222   0.211   0.220   0.220   0.229   0.224   0.222   0.235   0.234   0.231   0.219   0.238   0.230   0.226   0.215   0.213   0.238   0.234   0.251   0.259   0.252   0.254   0.245   0.239   0.230   0.236   0.236   0.230   0.236   0.214   0.214   0.219   0.218   0.220   0.213   0.206   0.196   0.194   0.195   0.213   0.193   0.209   0.211   0.201   0.225   0.224   0.231   0.251   0.244   0.247   0.247   0.239   0.232   0.238   0.248   0.254   0.252   0.239   0.229   0.211   0.208   0.220   0.219   0.222   0.225   0.222   0.216   0.203   0.203   0.202   0.223   0.224   0.226   0.221   0.237   0.226   0.224   0.232   0.237   0.229   0.234   0.221   0.244   0.249   0.244   0.231   0.232   0.243   0.255   0.263   0.260   0.274   0.282   0.295   0.296   0.290   0.284   0.289   0.309   0.296   0.277   0.298   0.310   0.301   0.297   0.292   0.298   0.306   0.299   0.304   0.293   0.309   0.319   0.306   0.298   0.308   0.304   0.315   0.302   0.293   0.286   0.282   0.278
   298.60    0.229   0.224   0.224   0.210   0.201   0.221   0.222   0.244   0.226   0.230   0.219   0.238   0.249   0.253   0.258   0.279   0.280   0.247   0.254   0.268   0.283   0.269   0.263   0.253   0.256   0.242   0.230   0.237   0.247   0.240   0.235   0.229   0.211   0.215   0.224   0.196   0.203   0.187   0.178   0.188   0.209   0.217   0.197   0.209   0.213   0.217   0.225   0.211   0.221   0.235   0.244   0.238   0.218   0.219   0.216   0.216   0.215   0.210   0.232   0.231   0.220   0.210   0.224   0.212   0.213   0.210   0.209   0.213   0.206   0.205   0.207   0.199   0.204   0.222   0.226   0.224   0.221   0.221   0.233   0.240   0.227   0.230   0.231   0.224   0.211   0.213   0.239   0.252   0.250   0.256   0.237   0.234   0.246   0.233   0.236   0.234   0.233   0.229   0.209   0.210   0.219   0.221   0.217   0.216   0.205   0.201   0.186   0.197   0.198   0.204   0.207   0.194   0.215   0.211   0.206   0.218   0.228   0.231   0.232   0.217   0.241   0.231   0.238   0.239   0.233   0.250   0.250   0.222   0.238   0.236   0.229   0.233   0.230   0.210   0.208   0.212   0.218   0.200   0.206   0.213   0.229   0.232   0.214   0.223   0.210   0.215   0.218   0.219   0.236   0.231   0.226   0.240   0.247   0.240   0.246   0.244   0.246   0.244   0.238   0.258   0.261   0.269   0.279   0.291   0.293   0.284   0.280   0.267   0.269   0.279   0.280   0.282   0.294   0.277   0.285   0.292   0.296   0.302   0.289   0.300   0.302   0.311   0.301   0.315   0.316   0.306   0.292   0.292   0.287   0.285   0.283   0.274   0.272
   289.30    0.223   0.217   0.207   0.229   0.226   0.231   0.221   0.225   0.218   0.228   0.230   0.235   0.236   0.237   0.263   0.269   0.268   0.266   0.252   0.267   0.268   0.267   0.266   0.248   0.258   0.251   0.233   0.228   0.233   0.227   0.217   0.218   0.200   0.209   0.203   0.191   0.196   0.186   0.187   0.195   0.194   0.199   0.199   0.202   0.212   0.209   0.206   0.213   0.221   0.224   0.227   0.224   0.207   0.200   0.209   0.209   0.227   0.229   0.237   0.227   0.211   0.229   0.228   0.217   0.221   0.213   0.213   0.219   0.217   0.209   0.195   0.197   0.201   0.221   0.221   0.215   0.216   0.229   0.236   0.223   0.232   0.227   0.206   0.209   0.210   0.210   0.234   0.241   0.247   0.242   0.222   0.227   0.218   0.231   0.236   0.230   0.241   0.224   0.233   0.239   0.230   0.223   0.225   0.228   0.224   0.195   0.201   0.207   0.193   0.208   0.219   0.212   0.216   0.222   0.215   0.212   0.222   0.224   0.225   0.230   0.233   0.231   0.230   0.236   0.223   0.236   0.247   0.233   0.238   0.232   0.230   0.238   0.244   0.234   0.205   0.205   0.210   0.201   0.206   0.227   0.226   0.227   0.211   0.210   0.221   0.215   0.209   0.224   0.226   0.234   0.225   0.234   0.240   0.230   0.229   0.238   0.237   0.250   0.261   0.253   0.250   0.268   0.277   0.273   0.273   0.268   0.254   0.257   0.251   0.251   0.261   0.259   0.270   0.270   0.280   0.295   0.298   0.299   0.291   0.298   0.302   0.319   0.320   0.325   0.312   0.289   0.272   0.282   0.262   0.276   0.278   0.263   0.254
   280.00    0.218   0.235   0.228   0.243   0.228   0.223   0.203   0.214   0.216   0.216   0.216   0.241   0.248   0.241   0.263   0.262   0.258   0.242   0.258   0.254   0.258   0.256   0.259   0.247   0.246   0.243   0.223   0.230   0.234   0.234   0.227   0.219   0.204   0.204   0.206   0.205   0.207   0.208   0.199   0.182   0.185   0.198   0.201   0.217   0.216   0.208   0.211   0.219   0.214   0.207   0.210   0.197   0.201   0.203   0.198   0.212   0.223   0.230   0.235   0.233   0.211   0.214   0.218   0.220   0.219   0.211   0.213   0.223   0.220   0.219   0.202   0.204   0.206   0.214   0.212   0.225   0.217   0.230   0.221   0.232   0.238   0.230   0.207   0.213   0.213   0.212   0.231   0.240   0.239   0.248   0.234   0.225   0.223   0.226   0.240   0.239   0.236   0.234   0.239   0.237   0.241   0.240   0.226   0.228   0.213   0.212   0.205   0.201   0.202   0.220   0.215   0.217   0.224   0.224   0.220   0.221   0.224   0.216   0.225   0.232   0.231   0.236   0.234   0.235   0.239   0.244   0.251   0.238   0.231   0.225   0.241   0.240   0.235   0.216   0.205   0.200   0.206   0.207   0.228   0.200   0.211   0.220   0.204   0.208   0.218   0.223   0.214   0.226   0.229   0.235   0.227   0.221   0.221   0.240   0.263   0.254   0.255   0.256   0.269   0.256   0.251   0.255   0.264   0.256   0.255   0.262   0.260   0.253   0.247   0.250   0.248   0.260   0.255   0.278   0.291   0.298   0.288   0.290   0.299   0.294   0.309   0.320   0.322   0.322   0.313   0.288   0.277   0.248   0.258   0.261   0.277   0.261   0.250
   270.70    0.220   0.235   0.243   0.237   0.237   0.236   0.200   0.214   0.224   0.220   0.222   0.239   0.245   0.256   0.250   0.250   0.255   0.254   0.251   0.255   0.262   0.261   0.242   0.241   0.236   0.238   0.231   0.223   0.230   0.221   0.211   0.210   0.205   0.197   0.202   0.206   0.193   0.197   0.204   0.198   0.187   0.195   0.199   0.207   0.217   0.225   0.224   0.223   0.219   0.196   0.195   0.187   0.200   0.201   0.208   0.225   0.222   0.238   0.239   0.223   0.216   0.209   0.206   0.215   0.222   0.217   0.215   0.217   0.218   0.220   0.206   0.196   0.204   0.215   0.222   0.224   0.221   0.226   0.219   0.224   0.230   0.221   0.214   0.213   0.214   0.214   0.237   0.246   0.251   0.244   0.237   0.223   0.222   0.216   0.227   0.243   0.241   0.223   0.218   0.235   0.249   0.233   0.225   0.234   0.226   0.211   0.216   0.201   0.207   0.214   0.230   0.229   0.247   0.224   0.214   0.211   0.216   0.224   0.232   0.236   0.242   0.231   0.246   0.237   0.228   0.249   0.258   0.238   0.232   0.235   0.249   0.230   0.234   0.220   0.198   0.194   0.205   0.213   0.226   0.207   0.214   0.210   0.211   0.210   0.227   0.234   0.213   0.239   0.251   0.258   0.250   0.238   0.239   0.252   0.264   0.273   0.275   0.261   0.259   0.260   0.252   0.254   0.245   0.257   0.256   0.248   0.245   0.238   0.232   0.244   0.242   0.242   0.254   0.259   0.269   0.272   0.282   0.291   0.285   0.294   0.285   0.297   0.302   0.308   0.315   0.304   0.282   0.277   0.280   0.281   0.261   0.255   0.252
   261.40    0.247   0.234   0.240   0.248   0.247   0.229   0.221   0.238   0.223   0.212   0.223   0.221   0.219   0.238   0.248   0.254   0.255   0.272   0.258   0.253   0.243   0.235   0.237   0.236   0.240   0.237   0.213   0.209   0.206   0.215   0.221   0.208   0.213   0.208   0.190   0.186   0.198   0.201   0.193   0.194   0.190   0.186   0.199   0.223   0.219   0.206   0.208   0.211   0.216   0.210   0.197   0.213   0.220   0.199   0.198   0.247   0.236   0.242   0.237   0.231   0.222   0.215   0.207   0.213   0.232   0.231   0.226   0.212   0.196   0.203   0.218   0.195   0.215   0.219   0.208   0.218   0.230   0.213   0.223   0.226   0.238   0.240   0.230   0.232   0.222   0.242   0.245   0.251   0.237   0.237   0.251   0.232   0.230   0.230   0.221   0.232   0.229   0.226   0.226   0.241   0.241   0.235   0.227   0.217   0.219   0.228   0.229   0.215   0.220   0.213   0.226   0.216   0.229   0.238   0.220   0.197   0.221   0.215   0.247   0.247   0.237   0.236   0.235   0.230   0.232   0.236   0.232   0.233   0.240   0.232   0.245   0.236   0.222   0.222   0.206   0.188   0.211   0.205   0.213   0.228   0.218   0.217   0.213   0.213   0.226   0.219   0.218   0.247   0.270   0.254   0.273   0.264   0.253   0.263   0.292   0.294   0.278   0.263   0.263   0.257   0.243   0.256   0.257   0.260   0.246   0.241   0.236   0.230   0.250   0.249   0.243   0.241   0.257   0.249   0.257   0.272   0.283   0.289   0.277   0.285   0.287   0.291   0.292   0.293   0.298   0.282   0.282   0.272   0.275   0.277   0.241   0.241   0.247
   252.10    0.251   0.241   0.235   0.233   0.237   0.239   0.235   0.230   0.236   0.219   0.229   0.230   0.215   0.226   0.239   0.259   0.247   0.250   0.273   0.255   0.244   0.245   0.236   0.235   0.231   0.224   0.208   0.206   0.198   0.205   0.212   0.213   0.205   0.200   0.197   0.197   0.199   0.212   0.217   0.211   0.204   0.199   0.206   0.206   0.215   0.218   0.219   0.218   0.214   0.219   0.210   0.218   0.212   0.205   0.218   0.238   0.256   0.271   0.245   0.227   0.221   0.222   0.203   0.208   0.208   0.224   0.217   0.209   0.197   0.200   0.205   0.199   0.204   0.199   0.216   0.222   0.218   0.213   0.210   0.228   0.238   0.235   0.231   0.251   0.243   0.245   0.251   0.250   0.245   0.248   0.241   0.242   0.236   0.230   0.221   0.233   0.226   0.221   0.217   0.224   0.239   0.230   0.219   0.222   0.232   0.240   0.235   0.234   0.237   0.222   0.220   0.224   0.215   0.225   0.209   0.217   0.227   0.226   0.232   0.244   0.242   0.245   0.244   0.216   0.220   0.224   0.235   0.225   0.233   0.238   0.230   0.223   0.216   0.225   0.227   0.202   0.212   0.209   0.215   0.208   0.216   0.222   0.218   0.217   0.240   0.238   0.221   0.235   0.258   0.247   0.255   0.262   0.254   0.277   0.288   0.291   0.297   0.266   0.254   0.243   0.247   0.248   0.243   0.240   0.251   0.252   0.260   0.245   0.258   0.260   0.247   0.250   0.252   0.247   0.245   0.248   0.273   0.286   0.272   0.274   0.277   0.293   0.300   0.269   0.285   0.276   0.267   0.278   0.283   0.252   0.254   0.242   0.237
   242.80    0.236   0.237   0.236   0.238   0.224   0.233   0.238   0.237   0.237   0.241   0.240   0.243   0.235   0.232   0.242   0.244   0.251   0.241   0.259   0.253   0.233   0.243   0.255   0.256   0.227   0.223   0.223   0.229   0.201   0.212   0.207   0.213   0.196   0.197   0.204   0.214   0.223   0.219   0.219   0.228   0.210   0.222   0.216   0.226   0.218   0.220   0.231   0.226   0.224   0.229   0.211   0.217   0.224   0.226   0.214   0.226   0.254   0.265   0.263   0.223   0.236   0.215   0.212   0.211   0.208   0.205   0.202   0.216   0.198   0.197   0.194   0.196   0.218   0.209   0.213   0.218   0.222   0.228   0.216   0.227   0.247   0.245   0.251   0.256   0.234   0.239   0.237   0.243   0.256   0.240   0.223   0.227   0.237   0.241   0.245   0.255   0.238   0.229   0.234   0.229   0.239   0.242   0.240   0.228   0.230   0.236   0.247   0.240   0.242   0.235   0.224   0.244   0.234   0.234   0.232   0.222   0.229   0.223   0.220   0.237   0.239   0.239   0.247   0.233   0.227   0.232   0.231   0.231   0.227   0.239   0.227   0.212   0.218   0.212   0.215   0.221   0.214   0.227   0.216   0.222   0.214   0.226   0.229   0.233   0.238   0.214   0.227   0.228   0.242   0.247   0.244   0.242   0.261   0.273   0.272   0.286   0.296   0.277   0.247   0.235   0.250   0.241   0.246   0.243   0.250   0.264   0.242   0.262   0.256   0.256   0.248   0.248   0.249   0.243   0.249   0.252   0.272   0.275   0.268   0.292   0.312   0.308   0.313   0.289   0.294   0.282   0.275   0.273   0.271   0.264   0.229   0.248   0.248
   233.50    0.256   0.250   0.253   0.226   0.219   0.223   0.235   0.235   0.248   0.232   0.244   0.258   0.260   0.234   0.238   0.230   0.250   0.250   0.258   0.241   0.244   0.228   0.252   0.242   0.228   0.215   0.224   0.230   0.216   0.216   0.217   0.219   0.203   0.200   0.220   0.222   0.234   0.223   0.238   0.246   0.229   0.233   0.215   0.223   0.215   0.224   0.215   0.223   0.221   0.220   0.213   0.202   0.216   0.220   0.229   0.237   0.247   0.256   0.246   0.219   0.222   0.213   0.197   0.198   0.197   0.203   0.194   0.205   0.197   0.202   0.203   0.196   0.204   0.205   0.206   0.217   0.235   0.228   0.224   0.237   0.238   0.238   0.243   0.238   0.232   0.223   0.238   0.250   0.252   0.227   0.214   0.232   0.242   0.256   0.254   0.260   0.235   0.222   0.231   0.225   0.248   0.245   0.241   0.224   0.228   0.231   0.236   0.231   0.240   0.245   0.250   0.259   0.254   0.262   0.238   0.230   0.214   0.211   0.222   0.220   0.230   0.224   0.217   0.220   0.203   0.207   0.233   0.246   0.246   0.251   0.230   0.230   0.220   0.221   0.226   0.217   0.225   0.198   0.206   0.213   0.215   0.208   0.215   0.229   0.230   0.209   0.226   0.218   0.229   0.228   0.216   0.250   0.265   0.276   0.275   0.293   0.277   0.297   0.268   0.253   0.241   0.242   0.253   0.264   0.271   0.263   0.255   0.266   0.250   0.232   0.256   0.246   0.251   0.246   0.250   0.271   0.276   0.285   0.290   0.291   0.308   0.296   0.300   0.289   0.289   0.279   0.269   0.275   0.281   0.253   0.248   0.251   0.251
   224.20    0.244   0.266   0.243   0.235   0.219   0.225   0.235   0.233   0.259   0.247   0.242   0.246   0.261   0.251   0.234   0.239   0.226   0.237   0.246   0.238   0.242   0.265   0.254   0.235   0.237   0.237   0.218   0.231   0.220   0.210   0.214   0.203   0.196   0.187   0.194   0.210   0.223   0.225   0.236   0.244   0.237   0.243   0.240   0.232   0.234   0.247   0.230   0.228   0.233   0.219   0.207   0.229   0.224   0.231   0.231   0.230   0.237   0.237   0.230   0.216   0.216   0.214   0.205   0.202   0.204   0.218   0.199   0.191   0.207   0.210   0.207   0.209   0.201   0.211   0.217   0.221   0.237   0.236   0.217   0.229   0.246   0.239   0.244   0.221   0.207   0.216   0.223   0.256   0.241   0.222   0.240   0.240   0.238   0.244   0.238   0.239   0.241   0.238   0.221   0.231   0.248   0.242   0.245   0.229   0.216   0.226   0.230   0.226   0.230   0.237   0.228   0.231   0.247   0.255   0.251   0.233   0.218   0.223   0.221   0.212   0.229   0.210   0.209   0.217   0.227   0.221   0.232   0.234   0.242   0.247   0.251   0.244   0.231   0.234   0.216   0.207   0.211   0.195   0.199   0.205   0.211   0.219   0.215   0.219   0.228   0.220   0.233   0.229   0.229   0.230   0.232   0.250   0.272   0.275   0.275   0.289   0.282   0.278   0.257   0.265   0.249   0.245   0.247   0.252   0.250   0.257   0.268   0.277   0.264   0.251   0.257   0.253   0.254   0.251   0.260   0.269   0.264   0.270   0.284   0.286   0.305   0.277   0.294   0.286   0.285   0.274   0.257   0.262   0.272   0.260   0.258   0.246   0.253
   214.90    0.263   0.265   0.237   0.213   0.217   0.208   0.229   0.236   0.239   0.237   0.237   0.241   0.240   0.217   0.216   0.209   0.209   0.214   0.217   0.207   0.227   0.238   0.252   0.242   0.242   0.229   0.230   0.228   0.216   0.193   0.193   0.192   0.196   0.197   0.204   0.203   0.203   0.228   0.227   0.250   0.244   0.254   0.252   0.255   0.240   0.241   0.228   0.227   0.220   0.218   0.230   0.228   0.229   0.222   0.215   0.228   0.232   0.236   0.230   0.212   0.220   0.212   0.215   0.213   0.208   0.213   0.212   0.197   0.189   0.203   0.205   0.217   0.205   0.196   0.192   0.217   0.233   0.244   0.224   0.226   0.236   0.238   0.237   0.224   0.201   0.222   0.228   0.242   0.236   0.245   0.225   0.247   0.230   0.239   0.228   0.239   0.231   0.228   0.223   0.228   0.242   0.239   0.239   0.239   0.217   0.240   0.247   0.231   0.223   0.230   0.223   0.238   0.252   0.252   0.255   0.245   0.238   0.217   0.220   0.223   0.211   0.205   0.199   0.217   0.230   0.235   0.232   0.232   0.229   0.244   0.241   0.257   0.239   0.225   0.218   0.212   0.218   0.206   0.202   0.210   0.223   0.219   0.227   0.232   0.221   0.221   0.227   0.236   0.252   0.248   0.244   0.249   0.269   0.270   0.270   0.270   0.279   0.276   0.257   0.254   0.258   0.243   0.245   0.249   0.257   0.266   0.270   0.269   0.287   0.260   0.249   0.245   0.260   0.266   0.255   0.262   0.250   0.266   0.276   0.287   0.277   0.281   0.286   0.289   0.280   0.277   0.266   0.268   0.271   0.250   0.238   0.242   0.250
   205.60    0.275   0.252   0.228   0.210   0.219   0.225   0.235   0.223   0.228   0.238   0.226   0.242   0.226   0.216   0.203   0.208   0.209   0.208   0.197   0.205   0.213   0.233   0.259   0.260   0.237   0.227   0.232   0.232   0.219   0.197   0.200   0.195   0.193   0.199   0.196   0.205   0.212   0.215   0.216   0.239   0.236   0.250   0.248   0.237   0.223   0.229   0.212   0.233   0.219   0.223   0.215   0.219   0.230   0.218   0.215   0.224   0.227   0.236   0.223   0.221   0.228   0.222   0.214   0.212   0.205   0.191   0.191   0.197   0.189   0.196   0.196   0.193   0.200   0.194   0.186   0.194   0.212   0.226   0.232   0.231   0.230   0.242   0.222   0.219   0.216   0.218   0.224   0.231   0.224   0.224   0.229   0.230   0.238   0.245   0.248   0.231   0.222   0.227   0.230   0.219   0.235   0.235   0.232   0.230   0.230   0.234   0.232   0.243   0.226   0.242   0.232   0.237   0.231   0.242   0.247   0.251   0.253   0.231   0.212   0.221   0.234   0.223   0.214   0.200   0.227   0.232   0.242   0.218   0.237   0.243   0.240   0.242   0.238   0.225   0.234   0.226   0.226   0.212   0.222   0.217   0.232   0.228   0.216   0.236   0.228   0.231   0.226   0.245   0.254   0.240   0.257   0.251   0.262   0.280   0.286   0.277   0.271   0.274   0.256   0.259   0.257   0.252   0.239   0.241   0.248   0.264   0.270   0.266   0.289   0.266   0.264   0.258   0.269   0.274   0.287   0.271   0.265   0.259   0.270   0.265   0.265   0.274   0.278   0.264   0.253   0.259   0.273   0.266   0.275   0.250   0.245   0.248   0.243
   196.30    0.265   0.256   0.243   0.234   0.233   0.229   0.233   0.232   0.247   0.244   0.227   0.240   0.221   0.211   0.217   0.218   0.218   0.204   0.219   0.225   0.221   0.236   0.247   0.259   0.248   0.230   0.240   0.242   0.231   0.212   0.206   0.214   0.210   0.187   0.179   0.198   0.217   0.216   0.215   0.224   0.231   0.232   0.243   0.235   0.226   0.225   0.213   0.232   0.220   0.205   0.208   0.216   0.216   0.207   0.211   0.224   0.222   0.236   0.222   0.241   0.239   0.217   0.212   0.210   0.206   0.202   0.193   0.204   0.188   0.196   0.184   0.189   0.190   0.199   0.194   0.199   0.206   0.205   0.206   0.213   0.217   0.223   0.223   0.233   0.230   0.217   0.226   0.231   0.220   0.221   0.211   0.222   0.229   0.231   0.234   0.225   0.232   0.225   0.241   0.230   0.226   0.234   0.234   0.230   0.229   0.242   0.238   0.229   0.214   0.213   0.224   0.233   0.238   0.248   0.246   0.238   0.244   0.225   0.222   0.221   0.230   0.227   0.214   0.217   0.223   0.227   0.228   0.220   0.231   0.235   0.230   0.241   0.249   0.231   0.241   0.241   0.231   0.229   0.210   0.216   0.217   0.212   0.227   0.220   0.237   0.241   0.241   0.257   0.268   0.255   0.255   0.257   0.273   0.285   0.305   0.295   0.289   0.267   0.257   0.265   0.263   0.248   0.253   0.238   0.249   0.248   0.274   0.273   0.274   0.267   0.264   0.277   0.273   0.293   0.305   0.282   0.260   0.254   0.249   0.258   0.253   0.263   0.251   0.240   0.236   0.255   0.258   0.267   0.264   0.249   0.236   0.247   0.231
   187.00    0.258   0.260   0.249   0.237   0.235   0.238   0.219   0.233   0.229   0.226   0.231   0.231   0.212   0.219   0.218   0.219   0.216   0.217   0.219   0.218   0.220   0.228   0.257   0.252   0.240   0.236   0.248   0.249   0.236   0.219   0.221   0.213   0.200   0.202   0.202   0.220   0.214   0.219   0.212   0.215   0.224   0.241   0.236   0.238   0.223   0.228   0.226   0.204   0.210   0.204   0.212   0.205   0.209   0.209   0.207   0.221   0.214   0.223   0.220   0.237   0.233   0.233   0.205   0.201   0.193   0.186   0.192   0.198   0.197   0.195   0.182   0.189   0.204   0.198   0.208   0.210   0.207   0.190   0.195   0.197   0.214   0.204   0.216   0.214   0.212   0.224   0.230   0.227   0.206   0.222   0.198   0.213   0.229   0.215   0.228   0.249   0.245   0.251   0.241   0.237   0.241   0.228   0.226   0.228   0.237   0.233   0.232   0.221   0.232   0.219   0.231   0.238   0.239   0.240   0.245   0.252   0.241   0.231   0.227   0.224   0.230   0.227   0.225   0.231   0.223   0.220   0.223   0.240   0.256   0.246   0.240   0.249   0.254   0.257   0.245   0.233   0.227   0.225   0.227   0.213   0.222   0.230   0.223   0.229   0.231   0.226   0.266   0.268   0.284   0.277   0.271   0.267   0.281   0.275   0.295   0.277   0.275   0.266   0.248   0.259   0.261   0.241   0.256   0.268   0.252   0.250   0.272   0.267   0.273   0.269   0.263   0.271   0.283   0.299   0.293   0.289   0.260   0.247   0.258   0.262   0.262   0.260   0.246   0.241   0.243   0.254   0.237   0.248   0.246   0.228   0.228   0.231   0.238
   177.70    0.249   0.246   0.242   0.236   0.232   0.232   0.227   0.237   0.236   0.237   0.216   0.210   0.218   0.220   0.216   0.210   0.217   0.211   0.219   0.232   0.237   0.244   0.261   0.272   0.252   0.263   0.241   0.236   0.242   0.226   0.226   0.213   0.215   0.219   0.225   0.206   0.212   0.202   0.197   0.207   0.223   0.231   0.235   0.228   0.227   0.228   0.218   0.205   0.205   0.205   0.203   0.200   0.209   0.203   0.212   0.217   0.221   0.207   0.217   0.231   0.227   0.227   0.218   0.196   0.195   0.184   0.186   0.200   0.207   0.219   0.196   0.201   0.213   0.211   0.207   0.215   0.212   0.202   0.201   0.208   0.206   0.210   0.207   0.213   0.221   0.212   0.229   0.223   0.221   0.211   0.204   0.223   0.223   0.234   0.245   0.262   0.253   0.248   0.246   0.244   0.217   0.228   0.232   0.229   0.230   0.245   0.233   0.231   0.215   0.212   0.229   0.232   0.234   0.225   0.246   0.236   0.234   0.251   0.243   0.233   0.237   0.251   0.233   0.233   0.230   0.212   0.215   0.232   0.254   0.250   0.244   0.248   0.263   0.249   0.242   0.244   0.254   0.244   0.224   0.230   0.235   0.223   0.234   0.228   0.227   0.231   0.250   0.275   0.264   0.269   0.285   0.290   0.283   0.290   0.282   0.258   0.276   0.242   0.236   0.245   0.260   0.256   0.271   0.263   0.272   0.270   0.274   0.266   0.281   0.273   0.277   0.272   0.269   0.286   0.278   0.261   0.263   0.238   0.260   0.260   0.257   0.252   0.235   0.228   0.229   0.230   0.249   0.241   0.239   0.234   0.218   0.221   0.232
   168.40    0.234   0.243   0.240   0.256   0.255   0.241   0.244   0.234   0.236   0.229   0.214   0.225   0.217   0.210   0.215   0.225   0.223   0.234   0.220   0.235   0.246   0.260   0.263   0.273   0.255   0.248   0.234   0.220   0.231   0.233   0.224   0.212   0.222   0.222   0.210   0.215   0.207   0.197   0.198   0.204   0.209   0.220   0.234   0.218   0.223   0.224   0.214   0.211   0.203   0.214   0.216   0.194   0.196   0.204   0.216   0.212   0.211   0.213   0.217   0.228   0.228   0.221   0.213   0.206   0.201   0.187   0.188   0.206   0.213   0.217   0.205   0.214   0.212   0.203   0.213   0.210   0.208   0.207   0.207   0.202   0.197   0.196   0.213   0.222   0.214   0.210   0.212   0.223   0.228   0.239   0.227   0.237   0.236   0.247   0.249   0.238   0.257   0.258   0.259   0.252   0.235   0.238   0.240   0.235   0.242   0.235   0.239   0.239   0.223   0.233   0.231   0.225   0.228   0.232   0.244   0.228   0.242   0.245   0.251   0.240   0.243   0.266   0.244   0.242   0.242   0.227   0.219   0.234   0.224   0.232   0.232   0.244   0.239   0.247   0.244   0.233   0.244   0.235   0.235   0.239   0.227   0.230   0.236   0.224   0.230   0.250   0.260   0.264   0.259   0.261   0.278   0.274   0.267   0.276   0.277   0.253   0.266   0.251   0.253   0.256   0.259   0.268   0.267   0.271   0.265   0.270   0.278   0.266   0.273   0.267   0.270   0.257   0.287   0.279   0.253   0.256   0.259   0.253   0.258   0.252   0.244   0.244   0.223   0.229   0.230   0.232   0.232   0.240   0.233   0.215   0.225   0.225   0.231
   159.10    0.234   0.235   0.228   0.250   0.242   0.231   0.241   0.224   0.230   0.204   0.217   0.229   0.217   0.225   0.205   0.217   0.199   0.208   0.225   0.233   0.263   0.263   0.238   0.248   0.261   0.254   0.232   0.226   0.227   0.231   0.230   0.222   0.203   0.222   0.219   0.208   0.201   0.210   0.211   0.207   0.210   0.215   0.222   0.221   0.228   0.229   0.219   0.200   0.216   0.214   0.214   0.220   0.201   0.211   0.211   0.213   0.207   0.231   0.230   0.224   0.212   0.236   0.217   0.209   0.202   0.206   0.200   0.209   0.211   0.221   0.206   0.202   0.204   0.214   0.201   0.212   0.210   0.199   0.198   0.204   0.204   0.186   0.204   0.226   0.214   0.223   0.214   0.230   0.222   0.229   0.243   0.240   0.233   0.236   0.247   0.246   0.263   0.260   0.262   0.239   0.231   0.229   0.228   0.243   0.248   0.235   0.242   0.248   0.241   0.234   0.226   0.222   0.240   0.241   0.233   0.238   0.239   0.233   0.237   0.233   0.252   0.257   0.252   0.246   0.231   0.240   0.235   0.229   0.226   0.230   0.256   0.261   0.247   0.253   0.239   0.231   0.243   0.237   0.247   0.247   0.250   0.241   0.237   0.216   0.242   0.258   0.245   0.251   0.252   0.258   0.262   0.263   0.258   0.257   0.260   0.248   0.248   0.259   0.259   0.241   0.241   0.245   0.242   0.258   0.255   0.263   0.273   0.243   0.250   0.250   0.247   0.248   0.260   0.270   0.262   0.255   0.241   0.233   0.236   0.227   0.225   0.230   0.218   0.227   0.227   0.240   0.237   0.232   0.223   0.236   0.226   0.233   0.226
   149.80    0.230   0.233   0.211   0.234   0.228   0.221   0.227   0.216   0.214   0.207   0.213   0.229   0.209   0.227   0.216   0.202   0.200   0.200   0.199   0.229   0.245   0.260   0.246   0.255   0.256   0.250   0.229   0.227   0.237   0.232   0.222   0.223   0.203   0.214   0.219   0.220   0.222   0.219   0.214   0.197   0.209   0.230   0.231   0.240   0.230   0.226   0.216   0.220   0.214   0.211   0.218   0.209   0.222   0.220   0.205   0.216   0.216   0.234   0.232   0.237   0.230   0.218   0.229   0.229   0.226   0.220   0.197   0.197   0.187   0.202   0.206   0.224   0.224   0.222   0.203   0.213   0.215   0.197   0.212   0.215   0.204   0.207   0.208   0.217   0.229   0.235   0.235   0.230   0.210   0.237   0.243   0.231   0.238   0.237   0.236   0.244   0.255   0.258   0.247   0.238   0.226   0.220   0.226   0.240   0.245   0.254   0.250   0.243   0.230   0.222   0.226   0.222   0.223   0.226   0.236   0.230   0.218   0.222   0.241   0.243   0.255   0.242   0.253   0.248   0.246   0.247   0.244   0.230   0.228   0.237   0.243   0.247   0.265   0.249   0.242   0.230   0.259   0.256   0.243   0.252   0.255   0.248   0.236   0.219   0.231   0.249   0.256   0.242   0.252   0.244   0.254   0.244   0.239   0.252   0.249   0.249   0.257   0.254   0.254   0.237   0.240   0.238   0.233   0.249   0.260   0.261   0.261   0.264   0.241   0.246   0.233   0.251   0.257   0.260   0.247   0.243   0.235   0.239   0.232   0.222   0.230   0.214   0.220   0.211   0.210   0.237   0.234   0.246   0.229   0.231   0.241   0.231   0.240
   140.50    0.233   0.230   0.221   0.221   0.217   0.215   0.229   0.201   0.216   0.197   0.205   0.215   0.213   0.210   0.204   0.188   0.202   0.184   0.192   0.203   0.222   0.239   0.241   0.249   0.242   0.234   0.222   0.230   0.223   0.227   0.208   0.226   0.223   0.231   0.224   0.224   0.226   0.219   0.216   0.220   0.215   0.227   0.219   0.232   0.225   0.207   0.214   0.213   0.226   0.211   0.216   0.209   0.217   0.226   0.223   0.231   0.245   0.241   0.233   0.234   0.233   0.234   0.232   0.224   0.235   0.237   0.214   0.196   0.182   0.197   0.204   0.217   0.223   0.236   0.200   0.205   0.209   0.212   0.205   0.225   0.231   0.210   0.233   0.242   0.243   0.243   0.250   0.229   0.225   0.237   0.230   0.230   0.221   0.238   0.240   0.225   0.246   0.244   0.241   0.233   0.250   0.250   0.246   0.219   0.235   0.248   0.243   0.236   0.224   0.215   0.223   0.217   0.217   0.222   0.226   0.222   0.236   0.234   0.235   0.243   0.230   0.248   0.252   0.247   0.236   0.250   0.241   0.231   0.236   0.228   0.237   0.246   0.255   0.253   0.267   0.273   0.277   0.267   0.263   0.269   0.259   0.253   0.245   0.243   0.247   0.257   0.250   0.242   0.243   0.239   0.240   0.226   0.226   0.250   0.246   0.250   0.256   0.250   0.240   0.233   0.223   0.225   0.249   0.237   0.250   0.255   0.256   0.249   0.232   0.244   0.248   0.232   0.235   0.239   0.243   0.235   0.227   0.221   0.219   0.217   0.221   0.212   0.218   0.204   0.216   0.236   0.232   0.239   0.231   0.222   0.222   0.246   0.242
   131.20    0.223   0.225   0.224   0.229   0.235   0.225   0.233   0.222   0.208   0.191   0.193   0.199   0.188   0.186   0.194   0.189   0.202   0.201   0.187   0.193   0.210   0.218   0.236   0.244   0.254   0.236   0.221   0.225   0.220   0.235   0.212   0.210   0.221   0.229   0.226   0.227   0.233   0.234   0.222   0.221   0.217   0.207   0.205   0.213   0.217   0.205   0.211   0.209   0.210   0.231   0.228   0.214   0.224   0.225   0.239   0.232   0.243   0.240   0.238   0.242   0.228   0.220   0.226   0.216   0.235   0.232   0.232   0.215   0.196   0.212   0.210   0.220   0.240   0.212   0.212   0.203   0.199   0.210   0.210   0.230   0.240   0.231   0.228   0.223   0.231   0.233   0.243   0.239   0.243   0.234   0.240   0.214   0.215   0.231   0.224   0.230   0.237   0.228   0.235   0.239   0.239   0.245   0.233   0.224   0.235   0.231   0.228   0.223   0.216   0.216   0.229   0.223   0.217   0.210   0.211   0.222   0.234   0.247   0.233   0.223   0.229   0.240   0.241   0.239   0.239   0.246   0.246   0.248   0.236   0.234   0.252   0.249   0.247   0.248   0.255   0.265   0.253   0.265   0.275   0.283   0.272   0.264   0.243   0.246   0.265   0.256   0.239   0.228   0.225   0.227   0.228   0.227   0.226   0.235   0.254   0.252   0.243   0.238   0.231   0.225   0.218   0.228   0.226   0.234   0.259   0.243   0.239   0.251   0.228   0.227   0.237   0.250   0.245   0.236   0.241   0.234   0.225   0.204   0.211   0.198   0.210   0.213   0.205   0.220   0.212   0.227   0.236   0.232   0.220   0.230   0.228   0.236   0.261
   121.90    0.227   0.227   0.237   0.247   0.239   0.219   0.224   0.222   0.195   0.189   0.180   0.190   0.201   0.181   0.178   0.185   0.204   0.202   0.202   0.201   0.205   0.213   0.221   0.243   0.248   0.239   0.253   0.242   0.248   0.238   0.245   0.223   0.212   0.220   0.230   0.235   0.227   0.225   0.229   0.232   0.222   0.219   0.219   0.211   0.216   0.220   0.220   0.233   0.232   0.225   0.217   0.226   0.228   0.232   0.244   0.245   0.238   0.227   0.232   0.241   0.233   0.222   0.205   0.217   0.218   0.233   0.220   0.204   0.204   0.204   0.213   0.216   0.228   0.235   0.223   0.219   0.211   0.208   0.215   0.233   0.228   0.231   0.229   0.220   0.217   0.220   0.235   0.230   0.240   0.251   0.237   0.224   0.226   0.226   0.218   0.222   0.218   0.228   0.223   0.233   0.243   0.244   0.243   0.224   0.216   0.232   0.223   0.222   0.224   0.216   0.216   0.220   0.207   0.203   0.213   0.220   0.228   0.234   0.222   0.218   0.228   0.228   0.231   0.225   0.226   0.236   0.232   0.237   0.243   0.247   0.260   0.255   0.238   0.241   0.275   0.272   0.262   0.269   0.274   0.264   0.249   0.248   0.252   0.254   0.254   0.248   0.234   0.225   0.233   0.225   0.224   0.224   0.213   0.233   0.238   0.230   0.229   0.219   0.225   0.232   0.231   0.237   0.227   0.234   0.234   0.235   0.229   0.228   0.214   0.214   0.231   0.248   0.249   0.249   0.250   0.239   0.226   0.202   0.195   0.189   0.205   0.198   0.210   0.209   0.211   0.219   0.219   0.234   0.234   0.228   0.239   0.250   0.264
   112.60    0.233   0.234   0.250   0.253   0.244   0.240   0.230   0.218   0.195   0.173   0.173   0.190   0.193   0.195   0.172   0.193   0.201   0.205   0.206   0.217   0.207   0.212   0.237   0.243   0.242   0.239   0.252   0.248   0.260   0.256   0.246   0.234   0.221   0.212   0.234   0.229   0.232   0.238   0.232   0.241   0.234   0.212   0.234   0.204   0.213   0.207   0.195   0.214   0.225   0.220   0.227   0.221   0.219   0.228   0.215   0.217   0.235   0.239   0.241   0.220   0.226   0.218   0.216   0.211   0.214   0.216   0.203   0.189   0.188   0.198   0.218   0.201   0.215   0.221   0.233   0.223   0.214   0.220   0.216   0.221   0.216   0.226   0.228   0.233   0.221   0.207   0.223   0.234   0.232   0.230   0.240   0.231   0.217   0.227   0.225   0.239   0.232   0.227   0.232   0.231   0.237   0.227   0.217   0.230   0.218   0.218   0.229   0.225   0.215   0.206   0.192   0.194   0.204   0.206   0.224   0.215   0.228   0.232   0.224   0.218   0.213   0.206   0.225   0.227   0.243   0.253   0.243   0.233   0.243   0.257   0.260   0.261   0.245   0.251   0.258   0.260   0.262   0.262   0.270   0.261   0.246   0.249   0.271   0.264   0.254   0.253   0.247   0.244   0.245   0.234   0.211   0.220   0.233   0.236   0.247   0.244   0.240   0.224   0.223   0.230   0.222   0.218   0.222   0.221   0.232   0.239   0.240   0.236   0.215   0.228   0.232   0.248   0.254   0.248   0.249   0.231   0.217   0.215   0.211   0.188   0.196   0.199   0.205   0.212   0.216   0.217   0.215   0.233   0.245   0.226   0.227   0.246   0.258
   103.30    0.222   0.220   0.239   0.252   0.259   0.228   0.228   0.218   0.211   0.203   0.204   0.218   0.203   0.194   0.188   0.193   0.195   0.196   0.204   0.207   0.210   0.240   0.238   0.233   0.237   0.253   0.250   0.266   0.266   0.243   0.241   0.214   0.218   0.223   0.222   0.216   0.215   0.231   0.236   0.233   0.218   0.231   0.207   0.223   0.219   0.231   0.215   0.212   0.223   0.226   0.218   0.218   0.216   0.221   0.216   0.206   0.224   0.222   0.238   0.223   0.216   0.216   0.223   0.216   0.205   0.219   0.205   0.186   0.203   0.208   0.236   0.230   0.220   0.225   0.231   0.217   0.217   0.227   0.224   0.201   0.222   0.229   0.235   0.237   0.231   0.216   0.205   0.219   0.210   0.216   0.216   0.212   0.211   0.224   0.239   0.235   0.233   0.214   0.231   0.229   0.235   0.237   0.202   0.220   0.214   0.217   0.216   0.210   0.193   0.190   0.195   0.183   0.191   0.215   0.223   0.224   0.231   0.238   0.226   0.224   0.235   0.222   0.219   0.241   0.259   0.255   0.240   0.238   0.257   0.253   0.248   0.253   0.254   0.243   0.254   0.253   0.256   0.261   0.247   0.271   0.257   0.254   0.273   0.259   0.253   0.261   0.263   0.259   0.237   0.239   0.229   0.225   0.230   0.248   0.252   0.234   0.252   0.255   0.246   0.228   0.229   0.207   0.219   0.223   0.227   0.237   0.237   0.238   0.229   0.233   0.218   0.230   0.244   0.237   0.240   0.231   0.222   0.200   0.201   0.197   0.203   0.205   0.213   0.220   0.214   0.213   0.209   0.218   0.231   0.231   0.231   0.230   0.239
    94.00    0.227   0.239   0.232   0.232   0.235   0.233   0.231   0.222   0.225   0.213   0.205   0.207   0.206   0.199   0.184   0.185   0.201   0.194   0.183   0.185   0.198   0.226   0.238   0.237   0.229   0.235   0.242   0.261   0.274   0.256   0.236   0.219   0.222   0.215   0.209   0.202   0.211   0.218   0.228   0.223   0.219   0.226   0.238   0.232   0.232   0.224   0.212   0.212   0.205   0.223   0.222   0.227   0.212   0.223   0.227   0.225   0.221   0.211   0.218   0.217   0.212   0.214   0.208   0.223   0.213   0.199   0.209   0.196   0.222   0.238   0.244   0.234   0.227   0.234   0.224   0.219   0.213   0.224   0.238   0.218   0.222   0.241   0.251   0.230   0.234   0.227   0.208   0.219   0.216   0.202   0.207   0.214   0.205   0.210   0.231   0.229   0.237   0.227   0.223   0.234   0.247   0.234   0.223   0.226   0.221   0.197   0.208   0.203   0.207   0.200   0.196   0.193   0.214   0.229   0.225   0.226   0.221   0.226   0.225   0.237   0.238   0.245   0.232   0.248   0.265   0.249   0.251   0.226   0.233   0.232   0.243   0.244   0.242   0.246   0.238   0.244   0.244   0.260   0.266   0.271   0.244   0.269   0.261   0.275   0.256   0.260   0.259   0.256   0.261   0.233   0.236   0.228   0.246   0.241   0.239   0.236   0.229   0.241   0.238   0.219   0.207   0.211   0.224   0.208   0.213   0.235   0.234   0.244   0.221   0.229   0.229   0.232   0.219   0.233   0.235   0.222   0.216   0.216   0.203   0.201   0.183   0.199   0.191   0.205   0.194   0.195   0.203   0.217   0.228   0.224   0.235   0.232   0.236
    84.70    0.225   0.232   0.228   0.237   0.246   0.247   0.237   0.221   0.211   0.223   0.218   0.201   0.202   0.184   0.184   0.192   0.190   0.191   0.202   0.206   0.226   0.232   0.240   0.250   0.243   0.251   0.241   0.257   0.265   0.262   0.232   0.230   0.221   0.226   0.222   0.208   0.212   0.203   0.224   0.226   0.216   0.222   0.222   0.233   0.218   0.208   0.212   0.228   0.231   0.218   0.237   0.233   0.233   0.225   0.233   0.235   0.210   0.210   0.206   0.203   0.205   0.194   0.205   0.214   0.223   0.211   0.204   0.205   0.218   0.231   0.244   0.236   0.252   0.221   0.206   0.205   0.206   0.230   0.235   0.228   0.217   0.228   0.235   0.224   0.225   0.230   0.229   0.222   0.205   0.191   0.191   0.210   0.199   0.221   0.225   0.233   0.239   0.236   0.229   0.239   0.238   0.238   0.211   0.219   0.211   0.212   0.201   0.206   0.212   0.221   0.205   0.210   0.218   0.221   0.212   0.203   0.209   0.208   0.218   0.225   0.234   0.251   0.238   0.245   0.272   0.263   0.250   0.238   0.220   0.242   0.231   0.231   0.229   0.247   0.240   0.243   0.248   0.242   0.259   0.258   0.255   0.267   0.252   0.269   0.255   0.274   0.259   0.254   0.240   0.236   0.231   0.235   0.257   0.264   0.254   0.246   0.232   0.241   0.245   0.215   0.200   0.217   0.214   0.207   0.230   0.234   0.218   0.226   0.233   0.231   0.229   0.231   0.228   0.217   0.221   0.218   0.223   0.227   0.220   0.204   0.213   0.205   0.203   0.208   0.210   0.213   0.209   0.216   0.220   0.222   0.219   0.226   0.224
    75.40    0.218   0.222   0.243   0.246   0.241   0.244   0.236   0.219   0.225   0.242   0.224   0.204   0.219   0.201   0.192   0.182   0.183   0.187   0.208   0.206   0.229   0.239   0.242   0.245   0.234   0.251   0.255   0.259   0.258   0.239   0.220   0.223   0.223   0.227   0.223   0.205   0.215   0.205   0.218   0.205   0.212   0.211   0.231   0.220   0.208   0.214   0.221   0.219   0.220   0.231   0.233   0.230   0.226   0.215   0.231   0.233   0.213   0.211   0.193   0.201   0.193   0.199   0.215   0.223   0.228   0.215   0.207   0.211   0.229   0.240   0.224   0.235   0.245   0.230   0.215   0.212   0.232   0.225   0.220   0.225   0.231   0.217   0.235   0.223   0.214   0.214   0.213   0.211   0.199   0.187   0.186   0.196   0.195   0.212   0.210   0.212   0.232   0.230   0.225   0.227   0.219   0.236   0.223   0.227   0.217   0.205   0.214   0.225   0.233   0.219   0.216   0.206   0.213   0.205   0.199   0.206   0.215   0.208   0.218   0.233   0.227   0.248   0.250   0.235   0.250   0.245   0.254   0.242   0.243   0.235   0.241   0.229   0.232   0.240   0.241   0.262   0.234   0.251   0.251   0.253   0.259   0.263   0.259   0.264   0.270   0.269   0.249   0.244   0.247   0.234   0.236   0.241   0.269   0.258   0.264   0.240   0.227   0.229   0.227   0.199   0.189   0.193   0.216   0.236   0.244   0.221   0.226   0.222   0.230   0.224   0.214   0.205   0.200   0.214   0.213   0.220   0.211   0.216   0.214   0.204   0.211   0.228   0.215   0.215   0.239   0.230   0.218   0.222   0.226   0.219   0.214   0.226   0.228
    66.10    0.236   0.225   0.228   0.225   0.226   0.245   0.235   0.231   0.226   0.222   0.231   0.229   0.207   0.190   0.195   0.201   0.202   0.199   0.205   0.235   0.238   0.240   0.244   0.249   0.248   0.247   0.252   0.257   0.258   0.235   0.210   0.229   0.228   0.222   0.211   0.210   0.203   0.206   0.201   0.208   0.214   0.224   0.233   0.230   0.222   0.233   0.213   0.234   0.220   0.225   0.229   0.224   0.228   0.230   0.233   0.217   0.227   0.203   0.209   0.206   0.201   0.200   0.231   0.218   0.236   0.228   0.216   0.214   0.224   0.234   0.235   0.224   0.240   0.223   0.220   0.221   0.229   0.225   0.225   0.229   0.228   0.234   0.232   0.217   0.219   0.212   0.211   0.206   0.207   0.193   0.199   0.208   0.206   0.221   0.224   0.219   0.219   0.225   0.228   0.221   0.223   0.217   0.218   0.214   0.216   0.208   0.228   0.230   0.237   0.236   0.225   0.200   0.196   0.194   0.202   0.200   0.213   0.217   0.245   0.238   0.242   0.249   0.250   0.244   0.244   0.250   0.242   0.232   0.230   0.241   0.249   0.245   0.242   0.245   0.247   0.250   0.243   0.243   0.259   0.260   0.265   0.270   0.271   0.267   0.253   0.258   0.254   0.251   0.238   0.240   0.241   0.235   0.265   0.256   0.254   0.244   0.221   0.215   0.206   0.195   0.182   0.205   0.209   0.236   0.234   0.226   0.224   0.225   0.232   0.214   0.205   0.199   0.205   0.234   0.228   0.236   0.222   0.218   0.232   0.215   0.229   0.237   0.228   0.217   0.228   0.222   0.212   0.211   0.213   0.216   0.218   0.196   0.217
    56.80    0.232   0.233   0.221   0.231   0.252   0.249   0.248   0.251   0.247   0.235   0.241   0.231   0.225   0.224   0.214   0.218   0.207   0.214   0.230   0.249   0.250   0.262   0.255   0.265   0.269   0.267   0.252   0.247   0.240   0.244   0.221   0.220   0.211   0.206   0.209   0.200   0.195   0.207   0.194   0.227   0.217   0.212   0.233   0.243   0.215   0.224   0.222   0.238   0.225   0.231   0.228   0.218   0.208   0.214   0.234   0.228   0.223   0.204   0.207   0.194   0.206   0.216   0.222   0.227   0.244   0.227   0.233   0.235   0.220   0.221   0.246   0.259   0.244   0.227   0.234   0.228   0.237   0.251   0.246   0.242   0.243   0.232   0.238   0.227   0.209   0.225   0.203   0.219   0.215   0.206   0.203   0.204   0.203   0.207   0.218   0.215   0.226   0.214   0.228   0.236   0.237   0.226   0.208   0.217   0.212   0.211   0.226   0.216   0.240   0.235   0.219   0.213   0.211   0.201   0.201   0.210   0.212   0.220   0.252   0.237   0.245   0.263   0.263   0.257   0.245   0.238   0.236   0.232   0.237   0.242   0.255   0.244   0.228   0.244   0.240   0.235   0.253   0.239   0.256   0.242   0.240   0.247   0.249   0.256   0.252   0.260   0.255   0.248   0.246   0.239   0.240   0.237   0.239   0.250   0.240   0.246   0.230   0.208   0.201   0.209   0.206   0.207   0.207   0.219   0.249   0.244   0.228   0.226   0.233   0.211   0.205   0.202   0.223   0.226   0.241   0.244   0.221   0.229   0.226   0.220   0.226   0.242   0.242   0.239   0.233   0.230   0.213   0.226   0.224   0.235   0.225   0.220   0.206
    47.50    0.236   0.229   0.215   0.225   0.248   0.270   0.259   0.258   0.241   0.242   0.239   0.229   0.226   0.226   0.239   0.220   0.223   0.240   0.229   0.238   0.249   0.256   0.267   0.252   0.260   0.259   0.253   0.240   0.231   0.239   0.234   0.232   0.233   0.205   0.197   0.200   0.189   0.197   0.204   0.214   0.215   0.213   0.216   0.235   0.222   0.232   0.243   0.235   0.235   0.234   0.225   0.211   0.199   0.198   0.204   0.222   0.219   0.221   0.208   0.195   0.195   0.208   0.226   0.234   0.241   0.245   0.239   0.229   0.222   0.243   0.234   0.245   0.233   0.220   0.222   0.241   0.232   0.254   0.249   0.236   0.243   0.232   0.232   0.213   0.214   0.209   0.199   0.211   0.227   0.225   0.211   0.199   0.210   0.226   0.210   0.202   0.209   0.202   0.213   0.225   0.244   0.230   0.222   0.216   0.220   0.221   0.217   0.221   0.232   0.243   0.219   0.229   0.210   0.209   0.212   0.208   0.209   0.231   0.235   0.242   0.246   0.262   0.266   0.270   0.243   0.229   0.229   0.221   0.226   0.235   0.242   0.239   0.224   0.239   0.235   0.215   0.235   0.234   0.242   0.236   0.245   0.243   0.251   0.253   0.265   0.260   0.237   0.248   0.255   0.253   0.242   0.240   0.240   0.254   0.245   0.245   0.229   0.224   0.227   0.221   0.219   0.214   0.210   0.208   0.235   0.228   0.220   0.232   0.224   0.210   0.206   0.209   0.224   0.229   0.247   0.227   0.237   0.227   0.229   0.230   0.225   0.232   0.238   0.226   0.228   0.227   0.221   0.225   0.230   0.225   0.226   0.227   0.235
    38.20    0.232   0.234   0.237   0.242   0.253   0.257   0.250   0.248   0.258   0.244   0.231   0.237   0.237   0.234   0.248   0.229   0.235   0.252   0.252   0.249   0.253   0.251   0.238   0.243   0.255   0.267   0.255   0.248   0.240   0.237   0.238   0.239   0.240   0.223   0.206   0.199   0.197   0.192   0.192   0.194   0.212   0.228   0.217   0.232   0.251   0.232   0.230   0.240   0.240   0.248   0.223   0.206   0.188   0.190   0.193   0.209   0.219   0.227   0.215   0.203   0.205   0.207   0.207   0.226   0.231   0.237   0.233   0.226   0.238   0.255   0.234   0.234   0.220   0.215   0.211   0.214   0.238   0.253   0.242   0.229   0.239   0.233   0.220   0.226   0.203   0.212   0.208   0.214   0.215   0.218   0.205   0.204   0.201   0.225   0.221   0.209   0.194   0.197   0.223   0.225   0.229   0.226   0.224   0.213   0.204   0.213   0.224   0.212   0.228   0.231   0.228   0.228   0.222   0.213   0.206   0.211   0.215   0.225   0.233   0.232   0.243   0.252   0.249   0.260   0.252   0.233   0.224   0.218   0.216   0.222   0.227   0.228   0.226   0.217   0.224   0.211   0.210   0.228   0.230   0.223   0.240   0.243   0.251   0.256   0.243   0.241   0.228   0.237   0.230   0.232   0.227   0.231   0.245   0.239   0.243   0.226   0.215   0.226   0.230   0.219   0.213   0.206   0.203   0.207   0.214   0.215   0.217   0.217   0.211   0.223   0.221   0.211   0.220   0.214   0.220   0.221   0.210   0.221   0.220   0.226   0.204   0.219   0.223   0.231   0.228   0.213   0.215   0.230   0.221   0.216   0.218   0.224   0.220
    28.90    0.231   0.241   0.240   0.237   0.252   0.252   0.244   0.243   0.248   0.239   0.244   0.239   0.224   0.246   0.248   0.244   0.235   0.242   0.238   0.230   0.240   0.242   0.235   0.228   0.239   0.248   0.250   0.267   0.255   0.247   0.244   0.245   0.247   0.216   0.209   0.205   0.202   0.189   0.202   0.206   0.205   0.210   0.231   0.233   0.234   0.227   0.251   0.236   0.245   0.242   0.234   0.214   0.203   0.188   0.205   0.225   0.226   0.224   0.221   0.213   0.207   0.203   0.199   0.208   0.221   0.216   0.233   0.244   0.240   0.258   0.258   0.237   0.235   0.218   0.221   0.205   0.237   0.245   0.238   0.234   0.232   0.224   0.211   0.233   0.220   0.216   0.216   0.209   0.215   0.217   0.209   0.220   0.216   0.228   0.219   0.222   0.206   0.209   0.227   0.229   0.220   0.228   0.234   0.221   0.207   0.216   0.204   0.216   0.226   0.226   0.220   0.236   0.233   0.214   0.204   0.229   0.212   0.209   0.214   0.233   0.232   0.244   0.255   0.272   0.257   0.252   0.212   0.213   0.217   0.227   0.215   0.214   0.207   0.202   0.199   0.216   0.207   0.214   0.225   0.232   0.238   0.251   0.244   0.255   0.234   0.242   0.232   0.239   0.223   0.222   0.228   0.248   0.228   0.226   0.230   0.223   0.198   0.203   0.221   0.227   0.216   0.202   0.199   0.202   0.223   0.202   0.211   0.219   0.217   0.211   0.214   0.200   0.204   0.225   0.206   0.209   0.202   0.203   0.201   0.217   0.207   0.214   0.221   0.233   0.220   0.206   0.191   0.210   0.220   0.210   0.224   0.223   0.227
    19.60    0.233   0.240   0.259   0.250   0.244   0.244   0.240   0.230   0.228   0.244   0.255   0.250   0.230   0.245   0.248   0.231   0.227   0.229   0.231   0.218   0.217   0.224   0.224   0.224   0.241   0.257   0.249   0.239   0.248   0.247   0.240   0.241   0.222   0.222   0.210   0.208   0.194   0.197   0.204   0.191   0.205   0.212   0.227   0.226   0.241   0.234   0.252   0.255   0.255   0.243   0.225   0.225   0.211   0.218   0.203   0.221   0.210   0.225   0.217   0.220   0.205   0.203   0.205   0.205   0.212   0.219   0.243   0.253   0.249   0.252   0.249   0.237   0.219   0.218   0.216   0.210   0.222   0.222   0.226   0.222   0.231   0.233   0.218   0.216   0.211   0.207   0.206   0.202   0.214   0.215   0.211   0.229   0.234   0.223   0.212   0.217   0.206   0.202   0.234   0.227   0.238   0.237   0.235   0.229   0.217   0.223   0.214   0.187   0.209   0.236   0.232   0.253   0.252   0.244   0.234   0.228   0.223   0.224   0.222   0.230   0.229   0.239   0.247   0.262   0.253   0.247   0.226   0.207   0.216   0.214   0.224   0.202   0.199   0.189   0.191   0.201   0.213   0.228   0.225   0.234   0.240   0.255   0.236   0.246   0.246   0.239   0.240   0.231   0.227   0.225   0.256   0.259   0.248   0.231   0.236   0.227   0.206   0.200   0.211   0.199   0.215   0.201   0.206   0.195   0.216   0.202   0.212   0.210   0.219   0.212   0.209   0.204   0.212   0.223   0.202   0.202   0.211   0.211   0.199   0.216   0.210   0.216   0.222   0.227   0.223   0.215   0.226   0.218   0.204   0.211   0.214   0.226   0.221
    10.30    0.235   0.221   0.239   0.236   0.230   0.232   0.243   0.234   0.245   0.244   0.235   0.221   0.219   0.246   0.262   0.250   0.231   0.241   0.227   0.219   0.216   0.205   0.218   0.230   0.231   0.243   0.234   0.231   0.236   0.244   0.231   0.226   0.237   0.220   0.213   0.210   0.215   0.213   0.217   0.201   0.203   0.222   0.219   0.220   0.232   0.228   0.236   0.233   0.237   0.236   0.235   0.237   0.217   0.213   0.231   0.216   0.227   0.226   0.224   0.227   0.195   0.203   0.205   0.199   0.209   0.227   0.245   0.255   0.253   0.240   0.240   0.231   0.237   0.226   0.226   0.220   0.226   0.214   0.217   0.222   0.236   0.217   0.200   0.206   0.204   0.196   0.209   0.215   0.211   0.204   0.211   0.228   0.233   0.225   0.215   0.213   0.215   0.211   0.244   0.228   0.234   0.220   0.235   0.226   0.199   0.207   0.208   0.205   0.215   0.228   0.247   0.252   0.247   0.250   0.241   0.233   0.229   0.226   0.229   0.214   0.231   0.232   0.236   0.251   0.258   0.234   0.238   0.222   0.205   0.209   0.205   0.210   0.206   0.214   0.199   0.199   0.218   0.225   0.214   0.215   0.235   0.234   0.247   0.237   0.234   0.245   0.236   0.222   0.234   0.235   0.264   0.245   0.267   0.245   0.255   0.238   0.210   0.196   0.199   0.197   0.206   0.214   0.205   0.223   0.221   0.214   0.222   0.225   0.220   0.225   0.214   0.217   0.233   0.216   0.218   0.204   0.203   0.202   0.203   0.205   0.218   0.212   0.229   0.234   0.233   0.214   0.228   0.225   0.217   0.212   0.223   0.224   0.226
     1.00    0.239   0.230   0.233   0.231   0.231   0.233   0.237   0.246   0.245   0.228   0.232   0.235   0.229   0.236   0.250   0.248   0.254   0.254   0.223   0.211   0.217   0.208   0.218   0.221   0.238   0.228   0.236   0.226   0.229   0.240   0.226   0.239   0.241   0.215   0.215   0.212   0.227   0.224   0.224   0.218   0.210   0.214   0.227   0.212   0.208   0.208   0.236   0.233   0.228   0.227   0.218   0.218   0.211   0.220   0.226   0.227   0.227   0.215   0.219   0.217   0.197   0.204   0.218   0.212   0.225   0.229   0.234   0.242   0.240   0.241   0.222   0.226   0.233   0.230   0.222   0.214   0.212   0.209   0.206   0.216   0.221   0.211   0.205   0.201   0.200   0.186   0.198   0.212   0.217   0.218   0.213   0.229   0.233   0.240   0.219   0.210   0.221   0.211   0.224   0.231   0.209   0.214   0.219   0.216   0.206   0.186   0.200   0.206   0.218   0.216   0.237   0.254   0.267   0.246   0.245   0.222   0.225   0.215   0.219   0.199   0.213   0.228   0.218   0.234   0.243   0.227   0.237   0.222   0.213   0.201   0.215   0.207   0.216   0.212   0.199   0.196   0.205   0.224   0.215   0.224   0.211   0.224   0.236   0.249   0.235   0.248   0.241   0.245   0.241   0.242   0.251   0.268   0.267   0.250   0.245   0.236   0.210   0.201   0.204   0.196   0.208   0.211   0.214   0.217   0.226   0.225   0.223   0.219   0.220   0.228   0.221   0.215   0.230   0.233   0.224   0.228   0.211   0.199   0.195   0.200   0.208   0.224   0.230   0.228   0.222   0.204   0.212   0.212   0.219   0.221   0.209   0.228   0.233

   Height   Standard deviation at grid points for the v component:
   354.40    0.200   0.211   0.219   0.207   0.197   0.191   0.188   0.197   0.196   0.189   0.191   0.194   0.207   0.210   0.216   0.226   0.218   0.211   0.204   0.218   0.210   0.203   0.205   0.207   0.202   0.201   0.206   0.188   0.189   0.190   0.178   0.176   0.182   0.177   0.191   0.195   0.203   0.214   0.204   0.204   0.200   0.199   0.211   0.198   0.190   0.193   0.195   0.189   0.192   0.195   0.200   0.191   0.191   0.195   0.193   0.198   0.191   0.192   0.194   0.199   0.196   0.195   0.198   0.203   0.183   0.183   0.193   0.194   0.197   0.189   0.195   0.190   0.188   0.181   0.174   0.178   0.178   0.188   0.183   0.174   0.180   0.185   0.200   0.202   0.200   0.204   0.204   0.194   0.192   0.187   0.174   0.179   0.180   0.174   0.179   0.189   0.187   0.183   0.183   0.169   0.173   0.184   0.182   0.191   0.195   0.194   0.182   0.177   0.180   0.178   0.181   0.183   0.177   0.180   0.182   0.177   0.177   0.185   0.182   0.186   0.193   0.195   0.192   0.180   0.178   0.189   0.185   0.179   0.187   0.186   0.192   0.195   0.198   0.210   0.207   0.211   0.202   0.202   0.191   0.206   0.205   0.198   0.207   0.202   0.198   0.194   0.194   0.188   0.188   0.187   0.196   0.180   0.178   0.186   0.184   0.195   0.198   0.203   0.193   0.187   0.190   0.198   0.200   0.201   0.200   0.196   0.201   0.195   0.208   0.198   0.205   0.196   0.191   0.189   0.201   0.212   0.212   0.204   0.205   0.202   0.203   0.199   0.198   0.200   0.196   0.198   0.201   0.192   0.190   0.191   0.186   0.185   0.183
   345.10    0.214   0.220   0.220   0.210   0.197   0.186   0.194   0.195   0.201   0.195   0.197   0.205   0.205   0.212   0.219   0.222   0.216   0.212   0.203   0.206   0.212   0.207   0.204   0.199   0.200   0.198   0.190   0.186   0.185   0.181   0.183   0.173   0.182   0.186   0.195   0.203   0.204   0.207   0.209   0.189   0.196   0.208   0.216   0.204   0.197   0.191   0.187   0.193   0.189   0.193   0.189   0.178   0.173   0.183   0.188   0.199   0.189   0.195   0.194   0.199   0.195   0.194   0.192   0.189   0.189   0.184   0.185   0.191   0.188   0.198   0.188   0.191   0.182   0.177   0.167   0.176   0.173   0.182   0.187   0.183   0.194   0.194   0.201   0.209   0.209   0.201   0.204   0.180   0.180   0.176   0.179   0.187   0.188   0.180   0.177   0.185   0.191   0.182   0.174   0.180   0.174   0.186   0.194   0.199   0.204   0.206   0.189   0.197   0.203   0.179   0.184   0.183   0.174   0.183   0.180   0.171   0.177   0.178   0.181   0.181   0.190   0.187   0.192   0.190   0.182   0.183   0.188   0.183   0.188   0.192   0.187   0.199   0.194   0.202   0.210   0.196   0.194   0.190   0.200   0.212   0.221   0.221   0.222   0.210   0.205   0.193   0.188   0.191   0.180   0.180   0.182   0.175   0.179   0.185   0.185   0.193   0.201   0.210   0.213   0.203   0.202   0.189   0.185   0.189   0.191   0.190   0.202   0.200   0.193   0.193   0.192   0.199   0.195   0.184   0.190   0.194   0.202   0.204   0.213   0.197   0.198   0.190   0.180   0.191   0.197   0.204   0.202   0.197   0.198   0.195   0.197   0.182   0.186
   335.80    0.214   0.223   0.222   0.227   0.211   0.207   0.199   0.203   0.205   0.202   0.205   0.204   0.215   0.226   0.224   0.229   0.213   0.198   0.191   0.196   0.202   0.199   0.201   0.203   0.201   0.191   0.189   0.177   0.176   0.177   0.188   0.180   0.191   0.192   0.195   0.202   0.200   0.201   0.201   0.195   0.194   0.202   0.206   0.199   0.188   0.183   0.190   0.194   0.184   0.188   0.185   0.179   0.171   0.171   0.176   0.180   0.192   0.193   0.186   0.197   0.203   0.188   0.187   0.180   0.186   0.182   0.182   0.181   0.185   0.187   0.185   0.191   0.180   0.170   0.172   0.177   0.176   0.186   0.182   0.177   0.193   0.213   0.207   0.200   0.198   0.206   0.202   0.198   0.182   0.182   0.177   0.192   0.187   0.192   0.190   0.193   0.192   0.192   0.190   0.180   0.171   0.180   0.192   0.197   0.201   0.189   0.191   0.205   0.185   0.187   0.177   0.177   0.167   0.172   0.172   0.187   0.182   0.184   0.177   0.180   0.168   0.183   0.190   0.192   0.180   0.171   0.173   0.178   0.186   0.190   0.190   0.199   0.198   0.198   0.198   0.197   0.191   0.196   0.209   0.216   0.221   0.226   0.221   0.208   0.199   0.203   0.194   0.189   0.183   0.181   0.181   0.183   0.177   0.183   0.190   0.197   0.198   0.206   0.215   0.207   0.206   0.190   0.188   0.189   0.193   0.192   0.186   0.181   0.187   0.187   0.185   0.185   0.187   0.190   0.196   0.202   0.210   0.202   0.210   0.200   0.202   0.194   0.187   0.182   0.197   0.196   0.195   0.211   0.203   0.195   0.204   0.192   0.187
   326.50    0.206   0.220   0.226   0.229   0.213   0.200   0.195   0.202   0.213   0.208   0.203   0.211   0.215   0.220   0.228   0.210   0.209   0.203   0.196   0.190   0.202   0.193   0.190   0.202   0.199   0.199   0.191   0.180   0.178   0.187   0.188   0.187   0.193   0.195   0.192   0.199   0.203   0.197   0.204   0.194   0.199   0.209   0.198   0.195   0.189   0.187   0.194   0.198   0.199   0.186   0.178   0.172   0.167   0.169   0.178   0.181   0.182   0.183   0.179   0.197   0.202   0.188   0.197   0.184   0.189   0.196   0.190   0.189   0.190   0.182   0.183   0.192   0.191   0.174   0.181   0.188   0.187   0.201   0.196   0.188   0.205   0.219   0.213   0.202   0.190   0.193   0.202   0.188   0.189   0.186   0.191   0.194   0.184   0.181   0.180   0.183   0.186   0.188   0.183   0.186   0.181   0.175   0.186   0.191   0.188   0.190   0.188   0.193   0.184   0.186   0.180   0.181   0.177   0.170   0.171   0.172   0.178   0.180   0.181   0.179   0.169   0.181   0.181   0.188   0.170   0.167   0.171   0.184   0.179   0.184   0.185   0.192   0.187   0.199   0.193   0.197   0.189   0.195   0.202   0.213   0.217   0.229   0.222   0.213   0.202   0.202   0.192   0.191   0.188   0.185   0.186   0.188   0.181   0.189   0.189   0.193   0.186   0.210   0.205   0.206   0.211   0.193   0.191   0.198   0.196   0.191   0.186   0.186   0.188   0.183   0.173   0.185   0.186   0.200   0.200   0.201   0.208   0.195   0.195   0.195   0.204   0.202   0.186   0.197   0.200   0.196   0.201   0.202   0.207   0.217   0.211   0.200   0.189
[...]
   103.30    0.116   0.117   0.119   0.115   0.120   0.120   0.119   0.116   0.114   0.118   0.114   0.117   0.119   0.119   0.116   0.117   0.115   0.113   0.113   0.111   0.115   0.119   0.122   0.119   0.115   0.116   0.119   0.117   0.113   0.114   0.114   0.118   0.116   0.112   0.112   0.115   0.117   0.118   0.120   0.119   0.118   0.119   0.120   0.118   0.119   0.121   0.118   0.119   0.117   0.120   0.120   0.114   0.112   0.114   0.121   0.123   0.123   0.124   0.122   0.119   0.120   0.115   0.118   0.117   0.118   0.120   0.124   0.124   0.120   0.121   0.117   0.116   0.115   0.115   0.116   0.117   0.116   0.118   0.116   0.114   0.120   0.120   0.116   0.118   0.121   0.121   0.124   0.123   0.124   0.124   0.121   0.121   0.123   0.122   0.122   0.123   0.120   0.120   0.119   0.114   0.116   0.116   0.121   0.118   0.121   0.122   0.124   0.130   0.129   0.127   0.126   0.123   0.121   0.118   0.117   0.119   0.116   0.113   0.116   0.118   0.117   0.115   0.119   0.119   0.124   0.117   0.119   0.114   0.112   0.112   0.113   0.118   0.121   0.118   0.116   0.115   0.116   0.115   0.120   0.119   0.120   0.117   0.116   0.118   0.115   0.116   0.118   0.117   0.117   0.118   0.118   0.120   0.123   0.121   0.123   0.120   0.120   0.121   0.127   0.128   0.125   0.125   0.121   0.121   0.120   0.120   0.116   0.114   0.118   0.117   0.119   0.117   0.120   0.117   0.117   0.121   0.119   0.120   0.118   0.117   0.113   0.116   0.116   0.115   0.116   0.119   0.124   0.118   0.118   0.119   0.116   0.117   0.120
    94.00    0.116   0.115   0.116   0.118   0.119   0.118   0.118   0.118   0.118   0.122   0.118   0.118   0.121   0.120   0.117   0.118   0.120   0.121   0.113   0.110   0.113   0.116   0.116   0.120   0.116   0.115   0.118   0.116   0.115   0.115   0.115   0.117   0.114   0.116   0.112   0.112   0.114   0.120   0.119   0.117   0.118   0.118   0.116   0.120   0.118   0.115   0.118   0.115   0.121   0.120   0.115   0.111   0.109   0.112   0.117   0.119   0.120   0.121   0.121   0.116   0.121   0.120   0.118   0.122   0.119   0.122   0.122   0.123   0.122   0.119   0.120   0.114   0.113   0.116   0.115   0.117   0.115   0.114   0.114   0.116   0.118   0.121   0.117   0.116   0.121   0.118   0.125   0.127   0.129   0.124   0.121   0.120   0.125   0.121   0.119   0.121   0.118   0.118   0.120   0.116   0.111   0.117   0.118   0.118   0.120   0.122   0.122   0.124   0.128   0.128   0.125   0.124   0.123   0.119   0.119   0.116   0.116   0.117   0.119   0.123   0.115   0.113   0.115   0.117   0.117   0.119   0.116   0.116   0.117   0.116   0.114   0.116   0.118   0.118   0.113   0.118   0.119   0.117   0.118   0.116   0.120   0.114   0.116   0.113   0.115   0.116   0.118   0.119   0.120   0.122   0.124   0.122   0.123   0.126   0.126   0.123   0.123   0.126   0.125   0.122   0.126   0.123   0.127   0.120   0.118   0.118   0.115   0.116   0.118   0.119   0.120   0.123   0.119   0.117   0.117   0.120   0.117   0.114   0.115   0.115   0.113   0.115   0.113   0.116   0.120   0.125   0.123   0.115   0.113   0.114   0.117   0.115   0.119
    84.70    0.119   0.117   0.116   0.120   0.123   0.115   0.120   0.121   0.124   0.120   0.122   0.120   0.122   0.122   0.117   0.118   0.118   0.120   0.117   0.116   0.116   0.115   0.117   0.117   0.117   0.110   0.113   0.114   0.116   0.111   0.116   0.113   0.112   0.112   0.111   0.111   0.113   0.120   0.124   0.120   0.121   0.118   0.115   0.113   0.116   0.113   0.114   0.115   0.115   0.114   0.115   0.112   0.113   0.112   0.116   0.118   0.118   0.117   0.118   0.121   0.116   0.118   0.116   0.116   0.121   0.123   0.121   0.121   0.124   0.118   0.119   0.115   0.114   0.117   0.116   0.116   0.117   0.120   0.120   0.118   0.117   0.116   0.118   0.121   0.117   0.118   0.123   0.125   0.123   0.126   0.122   0.124   0.124   0.123   0.116   0.117   0.116   0.115   0.118   0.118   0.114   0.114   0.116   0.117   0.118   0.122   0.124   0.122   0.122   0.123   0.127   0.127   0.123   0.123   0.123   0.119   0.119   0.118   0.117   0.121   0.120   0.112   0.113   0.115   0.115   0.117   0.119   0.119   0.117   0.116   0.116   0.115   0.114   0.115   0.115   0.117   0.118   0.118   0.119   0.120   0.117   0.116   0.118   0.115   0.117   0.112   0.120   0.120   0.121   0.124   0.121   0.119   0.125   0.122   0.124   0.125   0.124   0.123   0.123   0.119   0.120   0.119   0.123   0.122   0.117   0.114   0.116   0.117   0.120   0.118   0.117   0.118   0.121   0.120   0.119   0.116   0.114   0.118   0.115   0.114   0.117   0.114   0.114   0.114   0.115   0.118   0.117   0.117   0.112   0.112   0.118   0.115   0.120
    75.40    0.118   0.114   0.117   0.119   0.121   0.117   0.118   0.121   0.123   0.122   0.123   0.120   0.120   0.120   0.118   0.118   0.119   0.120   0.117   0.116   0.118   0.113   0.114   0.118   0.116   0.115   0.119   0.118   0.116   0.114   0.116   0.117   0.112   0.109   0.109   0.114   0.115   0.121   0.117   0.121   0.121   0.120   0.118   0.117   0.117   0.115   0.111   0.114   0.113   0.117   0.117   0.117   0.116   0.114   0.115   0.118   0.119   0.116   0.116   0.119   0.115   0.116   0.114   0.116   0.121   0.121   0.122   0.120   0.121   0.120   0.119   0.119   0.118   0.118   0.117   0.116   0.120   0.123   0.119   0.119   0.120   0.120   0.122   0.120   0.117   0.121   0.121   0.127   0.124   0.126   0.125   0.125   0.121   0.116   0.117   0.115   0.119   0.117   0.116   0.117   0.114   0.118   0.119   0.114   0.115   0.121   0.125   0.118   0.122   0.121   0.126   0.125   0.123   0.124   0.122   0.119   0.120   0.119   0.122   0.118   0.117   0.116   0.119   0.118   0.118   0.119   0.117   0.120   0.118   0.123   0.115   0.112   0.113   0.116   0.116   0.116   0.118   0.115   0.120   0.117   0.121   0.116   0.118   0.115   0.117   0.113   0.120   0.123   0.121   0.118   0.124   0.124   0.125   0.123   0.118   0.123   0.124   0.122   0.120   0.118   0.121   0.118   0.117   0.117   0.118   0.121   0.116   0.116   0.119   0.115   0.117   0.119   0.122   0.118   0.119   0.117   0.115   0.119   0.119   0.118   0.120   0.118   0.115   0.115   0.120   0.120   0.117   0.117   0.115   0.115   0.118   0.115   0.118
    66.10    0.118   0.115   0.116   0.121   0.120   0.119   0.119   0.124   0.124   0.123   0.120   0.121   0.119   0.118   0.121   0.120   0.118   0.123   0.122   0.121   0.115   0.112   0.113   0.111   0.115   0.113   0.115   0.119   0.118   0.116   0.115   0.120   0.114   0.113   0.114   0.115   0.113   0.117   0.118   0.121   0.120   0.119   0.120   0.114   0.113   0.114   0.112   0.113   0.116   0.120   0.118   0.116   0.120   0.116   0.118   0.117   0.115   0.112   0.114   0.119   0.119   0.116   0.115   0.114   0.116   0.119   0.122   0.120   0.120   0.124   0.124   0.120   0.120   0.115   0.116   0.115   0.118   0.122   0.123   0.118   0.118   0.122   0.121   0.119   0.120   0.119   0.119   0.124   0.127   0.126   0.123   0.122   0.119   0.119   0.114   0.115   0.114   0.115   0.112   0.115   0.117   0.119   0.114   0.114   0.117   0.120   0.124   0.121   0.124   0.120   0.123   0.123   0.121   0.122   0.117   0.118   0.121   0.119   0.116   0.120   0.119   0.120   0.120   0.123   0.123   0.123   0.122   0.117   0.119   0.119   0.112   0.117   0.114   0.116   0.120   0.115   0.114   0.117   0.115   0.117   0.117   0.115   0.112   0.115   0.116   0.115   0.118   0.118   0.119   0.120   0.121   0.123   0.128   0.128   0.126   0.124   0.125   0.121   0.121   0.120   0.121   0.124   0.116   0.118   0.117   0.118   0.115   0.115   0.117   0.119   0.122   0.121   0.124   0.121   0.120   0.117   0.115   0.115   0.119   0.118   0.118   0.119   0.119   0.117   0.115   0.120   0.122   0.124   0.116   0.113   0.116   0.118   0.119
    56.80    0.120   0.117   0.119   0.118   0.121   0.123   0.124   0.122   0.124   0.124   0.120   0.121   0.117   0.119   0.120   0.120   0.122   0.122   0.120   0.116   0.115   0.112   0.117   0.111   0.112   0.118   0.118   0.118   0.118   0.114   0.115   0.116   0.112   0.115   0.114   0.115   0.115   0.119   0.116   0.118   0.115   0.117   0.116   0.113   0.113   0.117   0.117   0.117   0.116   0.116   0.117   0.118   0.119   0.117   0.117   0.117   0.115   0.115   0.116   0.116   0.117   0.115   0.116   0.116   0.116   0.119   0.117   0.122   0.123   0.122   0.118   0.118   0.117   0.116   0.118   0.118   0.122   0.121   0.118   0.120   0.121   0.119   0.117   0.119   0.122   0.122   0.122   0.123   0.125   0.126   0.123   0.118   0.117   0.119   0.114   0.120   0.116   0.114   0.112   0.113   0.116   0.114   0.112   0.113   0.118   0.120   0.123   0.122   0.121   0.120   0.123   0.123   0.118   0.118   0.116   0.117   0.121   0.118   0.115   0.118   0.123   0.123   0.126   0.120   0.124   0.123   0.126   0.118   0.120   0.116   0.115   0.120   0.121   0.122   0.121   0.119   0.115   0.118   0.118   0.116   0.119   0.117   0.114   0.115   0.116   0.114   0.117   0.120   0.120   0.124   0.121   0.121   0.126   0.126   0.126   0.122   0.120   0.121   0.118   0.117   0.117   0.123   0.116   0.118   0.117   0.121   0.121   0.117   0.119   0.120   0.121   0.120   0.120   0.121   0.122   0.120   0.120   0.116   0.117   0.121   0.119   0.123   0.122   0.119   0.116   0.121   0.126   0.123   0.121   0.117   0.121   0.120   0.121
    47.50    0.119   0.118   0.115   0.116   0.121   0.120   0.128   0.123   0.121   0.123   0.120   0.119   0.119   0.117   0.117   0.117   0.117   0.119   0.115   0.117   0.117   0.116   0.118   0.117   0.116   0.115   0.117   0.119   0.116   0.116   0.115   0.119   0.117   0.116   0.120   0.118   0.114   0.117   0.117   0.117   0.119   0.113   0.115   0.108   0.113   0.117   0.116   0.115   0.119   0.117   0.118   0.120   0.120   0.118   0.116   0.116   0.117   0.116   0.120   0.117   0.118   0.116   0.119   0.116   0.114   0.114   0.119   0.120   0.118   0.117   0.114   0.120   0.116   0.120   0.115   0.120   0.118   0.117   0.117   0.122   0.121   0.123   0.123   0.121   0.120   0.119   0.120   0.122   0.125   0.123   0.123   0.121   0.121   0.121   0.114   0.116   0.115   0.114   0.113   0.115   0.114   0.116   0.113   0.115   0.118   0.121   0.120   0.120   0.118   0.121   0.120   0.120   0.121   0.122   0.119   0.113   0.119   0.118   0.117   0.119   0.121   0.122   0.123   0.124   0.117   0.121   0.121   0.121   0.121   0.118   0.122   0.121   0.119   0.119   0.122   0.122   0.117   0.119   0.120   0.119   0.119   0.120   0.122   0.119   0.116   0.118   0.120   0.123   0.124   0.121   0.119   0.117   0.122   0.128   0.130   0.129   0.124   0.122   0.120   0.120   0.120   0.124   0.118   0.118   0.119   0.117   0.122   0.124   0.121   0.119   0.122   0.122   0.121   0.117   0.124   0.120   0.121   0.121   0.117   0.121   0.119   0.124   0.123   0.118   0.116   0.125   0.124   0.123   0.120   0.120   0.121   0.119   0.123
    38.20    0.121   0.117   0.119   0.119   0.119   0.118   0.120   0.120   0.122   0.119   0.120   0.120   0.120   0.117   0.116   0.114   0.112   0.118   0.120   0.115   0.118   0.118   0.118   0.119   0.118   0.118   0.120   0.121   0.123   0.120   0.120   0.117   0.118   0.116   0.115   0.116   0.119   0.121   0.118   0.117   0.118   0.111   0.110   0.108   0.114   0.116   0.116   0.115   0.117   0.117   0.116   0.121   0.121   0.119   0.117   0.116   0.114   0.115   0.121   0.123   0.122   0.116   0.113   0.114   0.116   0.117   0.123   0.120   0.124   0.117   0.112   0.113   0.114   0.117   0.120   0.118   0.118   0.116   0.118   0.122   0.120   0.121   0.122   0.121   0.117   0.120   0.123   0.121   0.119   0.123   0.117   0.119   0.119   0.122   0.122   0.118   0.116   0.113   0.112   0.114   0.117   0.117   0.114   0.113   0.118   0.119   0.120   0.119   0.118   0.116   0.117   0.122   0.123   0.116   0.116   0.109   0.114   0.113   0.119   0.118   0.120   0.124   0.122   0.123   0.125   0.123   0.122   0.121   0.122   0.121   0.122   0.125   0.122   0.118   0.119   0.123   0.120   0.122   0.119   0.120   0.118   0.119   0.117   0.116   0.115   0.119   0.125   0.121   0.124   0.125   0.120   0.118   0.120   0.120   0.122   0.125   0.123   0.117   0.119   0.114   0.120   0.122   0.116   0.119   0.124   0.121   0.119   0.123   0.121   0.121   0.121   0.123   0.120   0.122   0.121   0.121   0.121   0.120   0.123   0.120   0.117   0.119   0.120   0.118   0.121   0.121   0.125   0.123   0.118   0.115   0.117   0.117   0.120
    28.90    0.119   0.116   0.117   0.117   0.124   0.124   0.122   0.122   0.122   0.124   0.118   0.118   0.117   0.118   0.115   0.115   0.115   0.117   0.118   0.117   0.114   0.119   0.117   0.117   0.113   0.118   0.118   0.119   0.120   0.123   0.120   0.119   0.119   0.112   0.113   0.112   0.118   0.122   0.116   0.119   0.117   0.111   0.111   0.110   0.113   0.116   0.111   0.114   0.119   0.120   0.120   0.118   0.123   0.119   0.117   0.112   0.110   0.115   0.122   0.122   0.121   0.116   0.117   0.119   0.116   0.118   0.122   0.125   0.119   0.119   0.113   0.111   0.110   0.117   0.117   0.118   0.119   0.117   0.119   0.119   0.125   0.121   0.123   0.125   0.127   0.127   0.125   0.122   0.120   0.117   0.119   0.118   0.118   0.118   0.120   0.119   0.116   0.110   0.112   0.115   0.115   0.115   0.114   0.117   0.118   0.115   0.118   0.118   0.118   0.119   0.120   0.120   0.120   0.115   0.119   0.115   0.115   0.121   0.118   0.117   0.123   0.121   0.123   0.124   0.126   0.123   0.125   0.127   0.118   0.124   0.121   0.123   0.121   0.118   0.118   0.119   0.120   0.126   0.126   0.125   0.121   0.119   0.115   0.111   0.115   0.118   0.120   0.118   0.124   0.122   0.118   0.118   0.121   0.122   0.118   0.122   0.119   0.120   0.122   0.122   0.122   0.121   0.115   0.120   0.121   0.121   0.114   0.119   0.118   0.121   0.122   0.117   0.117   0.117   0.117   0.122   0.120   0.118   0.121   0.121   0.115   0.116   0.120   0.120   0.121   0.122   0.124   0.120   0.117   0.119   0.116   0.120   0.120
    19.60    0.120   0.117   0.119   0.117   0.120   0.123   0.119   0.118   0.123   0.120   0.119   0.121   0.119   0.119   0.114   0.116   0.114   0.116   0.119   0.121   0.116   0.114   0.116   0.120   0.116   0.116   0.119   0.121   0.118   0.119   0.119   0.119   0.114   0.113   0.117   0.116   0.117   0.115   0.112   0.115   0.112   0.111   0.112   0.111   0.112   0.112   0.115   0.116   0.116   0.118   0.118   0.120   0.121   0.123   0.120   0.116   0.114   0.113   0.118   0.121   0.118   0.115   0.112   0.120   0.119   0.121   0.119   0.121   0.116   0.115   0.117   0.117   0.115   0.118   0.119   0.118   0.122   0.115   0.116   0.119   0.121   0.121   0.124   0.124   0.127   0.129   0.121   0.124   0.120   0.115   0.113   0.112   0.114   0.118   0.114   0.115   0.118   0.117   0.115   0.111   0.114   0.116   0.116   0.117   0.118   0.120   0.120   0.119   0.117   0.119   0.121   0.117   0.117   0.120   0.117   0.117   0.122   0.122   0.120   0.119   0.119   0.123   0.123   0.127   0.122   0.121   0.121   0.120   0.121   0.124   0.122   0.123   0.122   0.121   0.117   0.117   0.118   0.122   0.128   0.126   0.123   0.121   0.118   0.117   0.115   0.114   0.116   0.116   0.117   0.120   0.119   0.118   0.117   0.120   0.117   0.124   0.125   0.121   0.122   0.123   0.123   0.118   0.115   0.119   0.116   0.118   0.116   0.115   0.112   0.117   0.117   0.117   0.117   0.114   0.118   0.118   0.120   0.117   0.120   0.119   0.117   0.116   0.121   0.120   0.120   0.120   0.120   0.119   0.117   0.115   0.115   0.115   0.120
    10.30    0.117   0.119   0.116   0.120   0.119   0.121   0.116   0.119   0.117   0.118   0.117   0.121   0.123   0.122   0.118   0.117   0.114   0.114   0.115   0.117   0.117   0.113   0.113   0.119   0.117   0.116   0.117   0.118   0.118   0.116   0.116   0.116   0.113   0.116   0.115   0.113   0.115   0.113   0.112   0.113   0.112   0.113   0.114   0.114   0.114   0.114   0.117   0.118   0.120   0.122   0.120   0.118   0.119   0.123   0.119   0.116   0.116   0.114   0.120   0.123   0.121   0.121   0.120   0.119   0.121   0.120   0.117   0.117   0.116   0.116   0.115   0.116   0.115   0.115   0.118   0.116   0.121   0.120   0.118   0.121   0.122   0.123   0.123   0.118   0.120   0.122   0.120   0.121   0.119   0.116   0.116   0.118   0.119   0.120   0.118   0.117   0.117   0.118   0.114   0.117   0.112   0.117   0.119   0.120   0.117   0.118   0.121   0.117   0.117   0.118   0.121   0.115   0.116   0.120   0.119   0.119   0.119   0.122   0.121   0.120   0.124   0.121   0.123   0.122   0.120   0.122   0.123   0.119   0.120   0.127   0.126   0.119   0.122   0.121   0.116   0.117   0.119   0.117   0.121   0.124   0.125   0.123   0.116   0.116   0.116   0.115   0.111   0.113   0.113   0.117   0.117   0.116   0.114   0.119   0.121   0.119   0.121   0.117   0.117   0.121   0.122   0.119   0.121   0.116   0.117   0.116   0.122   0.115   0.119   0.115   0.115   0.119   0.115   0.123   0.121   0.121   0.120   0.121   0.118   0.124   0.119   0.121   0.119   0.119   0.118   0.118   0.120   0.115   0.116   0.119   0.116   0.118   0.111
     1.00    0.119   0.119   0.115   0.118   0.117   0.118   0.117   0.117   0.117   0.119   0.122   0.119   0.118   0.121   0.121   0.115   0.118   0.118   0.119   0.117   0.115   0.116   0.119   0.117   0.117   0.117   0.118   0.116   0.115   0.116   0.118   0.120   0.115   0.114   0.115   0.115   0.114   0.111   0.109   0.115   0.114   0.111   0.112   0.111   0.115   0.120   0.118   0.116   0.120   0.123   0.120   0.120   0.121   0.121   0.121   0.122   0.121   0.121   0.119   0.120   0.121   0.119   0.121   0.118   0.121   0.120   0.120   0.120   0.116   0.117   0.113   0.113   0.120   0.118   0.115   0.116   0.121   0.123   0.115   0.119   0.120   0.120   0.122   0.125   0.120   0.121   0.123   0.123   0.120   0.118   0.118   0.115   0.120   0.118   0.115   0.115   0.119   0.115   0.119   0.116   0.115   0.116   0.115   0.118   0.120   0.120   0.122   0.116   0.119   0.121   0.121   0.121   0.118   0.121   0.119   0.121   0.119   0.121   0.121   0.120   0.123   0.121   0.124   0.121   0.122   0.125   0.121   0.125   0.128   0.125   0.121   0.121   0.121   0.124   0.118   0.121   0.124   0.120   0.117   0.117   0.120   0.120   0.117   0.116   0.117   0.113   0.112   0.113   0.116   0.119   0.118   0.115   0.119   0.121   0.121   0.121   0.122   0.122   0.115   0.117   0.114   0.118   0.120   0.117   0.118   0.116   0.117   0.120   0.121   0.117   0.117   0.122   0.120   0.123   0.122   0.122   0.119   0.121   0.120   0.122   0.119   0.119   0.118   0.116   0.118   0.118   0.120   0.118   0.117   0.117   0.117   0.116   0.117

   Mean standard deviation across all grid points:
      u component:    0.232 m/s
      v component:    0.196 m/s
      w component:    0.118 m/s


U-component (X) statistics from the interpolated hub point:

   Mean =   9.7063 m/s
   TI   =   2.6446 %


Processing complete.  2.16142E+05 CPU seconds used.
