
This summary file was generated by TurbSim (from OpenFAST-v3.5.3) on 19-Apr-2025 at 20:16:01.


Runtime Options:

-228636811  Random seed #1
    RANLUX  Type of random number generator
         F  Output binary HH turbulence parameters?
         F  Output formatted turbulence parameters?
         F  Output AeroDyn HH files?
         T  Output AeroDyn FF files?
         F  Output BLADED FF files?
         F  Output tower data?
         F  Output HAWC FF files?
         F  Output formatted FF files?
         T  Output coherent turbulence time step file?
 0 -  NONE  IEC turbulence models scaled to exact specified standard deviation


Turbine/Model Specifications:

        39  Vertical grid-point matrix dimension
       193  Horizontal grid-point matrix dimension
     0.250  Time step [seconds]
   900.000  Analysis time [seconds]
   900.000  Usable output time [seconds]
   177.700  Hub height [m]
   353.400  Grid height [m]
  1785.600  Grid width [m]
     0.000  Vertical flow angle [degrees]
     0.000  Horizontal flow angle [degrees]


Meteorological Boundary Conditions:

    IECKAI  IEC Kaimal spectral model
         1  IEC standard: IEC 61400-1 Ed. 3: 2005
     5.000  Percent turbulence intensity, IEC 61400-1 Ed. 3: 2005
       NTM  IEC Normal Turbulence Model
       N/A  IEC Extreme Turbulence Model (ETM) "c" parameter [m/s]
       USR  Wind profile type
    90.000  Reference height [m]
       N/A  Reference wind speed [m/s]
       N/A  Jet height [m]
       N/A  Power law exponent
     0.030  Surface roughness length [m]


Non-IEC Meteorological Boundary Conditions:

       N/A  Site latitude [degrees]
       N/A  Gradient Richardson number
       N/A  Friction or shear velocity [m/s]
       N/A  Mixing layer depth [m]
       N/A  Mean hub u'w' Reynolds stress
       N/A  Mean hub u'v' Reynolds stress
       N/A  Mean hub v'w' Reynolds stress


Spatial Coherence Models:

       IEC  u-component coherence model
       IEC  v-component coherence model
       IEC  w-component coherence model
(   12.000, 0.353E-03)  u-component coherence parameters
(   12.000, 0.353E-03)  v-component coherence parameters
(   12.000, 0.353E-03)  w-component coherence parameters
       N/A  Coherence exponent


User-Defined Profiles:

  Height   Wind Speed   Horizontal Angle
   (m)        (m/s)          (deg)      
  ------   ----------   ----------------
  353.40      10.00         318.19
  334.80      10.00         321.14
  316.20      10.00         324.10
  297.60      10.00         327.05
  279.00      10.00         330.00
  260.40      10.00         332.95
  241.80      10.00         335.90
  223.20      10.00         338.86
  204.60      10.00         341.81
  186.00      10.00         344.76
  167.40      10.00         347.71
  148.80      10.00         350.67
  130.20      10.00         353.62
  111.60      10.00         356.57
   93.00      10.00         359.52
   74.40      10.00           2.48
   55.80      10.00           5.43
   37.20      10.00           8.38
   18.60      10.00          11.33
    0.00      10.00          14.29


You have requested that the following file(s) be generated:

   /kfs3/scratch/agupta/Projects/RL_Incubator/FinalRuns_Veer/Seed4/./FFSim_Seed4/Cond00_v10.0_PL0.12_TI5.0/Seed_1/Low.bts (AeroDyn/TurbSim full-field wind file)


Turbulence Simulation Scaling Parameter Summary:

   Turbulence model used                            =  IEC Kaimal
   Turbulence characteristic                        =  User-specified
   IEC standard                                     =  IEC 61400-1 Ed. 3: 2005
   Mean wind speed at hub height                    =   10.000 m/s
   Characteristic value of standard deviation       =    0.500 m/s
   Turbulence scale                                 =   42.000 m
   u-component integral scale                       =  340.200 m
   Coherency scale                                  =  340.200 m
   Characteristic value of hub turbulence intensity =    5.000%
   Gradient Richardson number                       =    0.000

   Wind profile type                                =  Linear interpolation of user-defined profile
   Equivalent power law exponent (upper rotor disk) =    0.000
   Mean shear across rotor disk                     =    0.000 (m/s)/m
   Assumed rotor diameter                           =  353.400 m
   Surface roughness length                         =    0.030 m

   Nyquist frequency of turbulent wind field        =    2.000 Hz

   Number of time steps in the FFT                  =     3600
   Number of time steps output                      =     3600
   Number of points simulated                       =     7527


Mean Flow Angles:

   Vertical   =   0.0 degrees
   Horizontal =   0.0 degrees

Mean Wind Speed Profile:

   Height    Wind Speed   Horizontal Angle  Vertical Angle  U-comp (X)   V-comp (Y)   W-comp (Z)
     (m)        (m/s)         (degrees)       (degrees)       (m/s)        (m/s)        (m/s)   
   ------    ----------   ----------------  --------------  ----------   ----------   ----------
    354.4       10.00          318.19            0.00          7.45        -6.67         0.00
    345.1       10.00          319.51            0.00          7.60        -6.49         0.00
    335.8       10.00          320.98            0.00          7.77        -6.30         0.00
    326.5       10.00          322.46            0.00          7.93        -6.09         0.00
    317.2       10.00          323.94            0.00          8.08        -5.89         0.00
    307.9       10.00          325.41            0.00          8.23        -5.68         0.00
    298.6       10.00          326.89            0.00          8.38        -5.46         0.00
    289.3       10.00          328.37            0.00          8.51        -5.25         0.00
    280.0       10.00          329.84            0.00          8.65        -5.02         0.00
    270.7       10.00          331.32            0.00          8.77        -4.80         0.00
    261.4       10.00          332.79            0.00          8.89        -4.57         0.00
    252.1       10.00          334.27            0.00          9.01        -4.34         0.00
    242.8       10.00          335.75            0.00          9.12        -4.11         0.00
    233.5       10.00          337.22            0.00          9.22        -3.87         0.00
    224.2       10.00          338.70            0.00          9.32        -3.63         0.00
    214.9       10.00          340.17            0.00          9.41        -3.39         0.00
    205.6       10.00          341.65            0.00          9.49        -3.15         0.00
    196.3       10.00          343.13            0.00          9.57        -2.90         0.00
    187.0       10.00          344.60            0.00          9.64        -2.66         0.00
    177.7       10.00          346.08            0.00          9.71        -2.41         0.00
    168.4       10.00          347.56            0.00          9.77        -2.15         0.00
    159.1       10.00          349.03            0.00          9.82        -1.90         0.00
    149.8       10.00          350.51            0.00          9.86        -1.65         0.00
    140.5       10.00          351.98            0.00          9.90        -1.39         0.00
    131.2       10.00          353.46            0.00          9.93        -1.14         0.00
    121.9       10.00          354.94            0.00          9.96        -0.88         0.00
    112.6       10.00          356.41            0.00          9.98        -0.63         0.00
    103.3       10.00          357.89            0.00          9.99        -0.37         0.00
     94.0       10.00          359.37            0.00         10.00        -0.11         0.00
     84.7       10.00          360.84            0.00         10.00         0.15         0.00
     75.4       10.00          362.32            0.00          9.99         0.40         0.00
     66.1       10.00            3.79            0.00          9.98         0.66         0.00
     56.8       10.00            5.27            0.00          9.96         0.92         0.00
     47.5       10.00            6.75            0.00          9.93         1.17         0.00
     38.2       10.00            8.22            0.00          9.90         1.43         0.00
     28.9       10.00            9.70            0.00          9.86         1.68         0.00
     19.6       10.00           11.17            0.00          9.81         1.94         0.00
     10.3       10.00           12.65            0.00          9.76         2.19         0.00
      1.0       10.00           14.13            0.00          9.70         2.44         0.00


Harvested Random Seeds after Generation of the Random Numbers:

    377667225 K 1
            0 K 2


Hub-Height Simulated Turbulence Statistical Summary:

   Type of Wind        Min (m/s)   Mean (m/s)    Max (m/s)  Sigma (m/s)       TI (%)
   ----------------    ---------   ----------    ---------  -----------       ------
   Longitudinal (u)         8.26        10.00        11.57        0.506        5.060
   Lateral (v)             -1.20         0.00         1.48        0.387        3.870
   Vertical (w)            -0.80         0.00         0.70        0.227        2.267
   U component              7.84         9.71        11.21        0.513        5.289
   V component             -3.48        -2.41        -1.01        0.377        3.886
   W component             -0.80         0.00         0.70        0.227        2.336
   Horizontal (U&V)         8.29        10.01        11.57        0.505        5.048
   Total                    8.29        10.01        11.57        0.505        5.044

                       Min Reynolds     Mean Reynolds    Max Reynolds    Correlation
   Product             Stress (m/s)^2   Stress (m/s)^2   Stress (m/s)^2  Coefficient
   ----------------    --------------   --------------   --------------  -----------
   u'w'                     -0.831             0.004             0.843         0.038
   u'v'                     -1.032             0.029             1.482         0.149
   v'w'                     -0.626            -0.003             0.497        -0.031


   Friction Velocity (Ustar)  =      0.066 m/s
   Maximum Instantaneous TKE  =      1.801 (m/s)^2
   Maximum Instantaneous CTKE =      0.862 (m/s)^2


Grid Point Variance Summary:

   Y-coord -892.80 -883.50 -874.20 -864.90 -855.60 -846.30 -837.00 -827.70 -818.40 -809.10 -799.80 -790.50 -781.20 -771.90 -762.60 -753.30 -744.00 -734.70 -725.40 -716.10 -706.80 -697.50 -688.20 -678.90 -669.60 -660.30 -651.00 -641.70 -632.40 -623.10 -613.80 -604.50 -595.20 -585.90 -576.60 -567.30 -558.00 -548.70 -539.40 -530.10 -520.80 -511.50 -502.20 -492.90 -483.60 -474.30 -465.00 -455.70 -446.40 -437.10 -427.80 -418.50 -409.20 -399.90 -390.60 -381.30 -372.00 -362.70 -353.40 -344.10 -334.80 -325.50 -316.20 -306.90 -297.60 -288.30 -279.00 -269.70 -260.40 -251.10 -241.80 -232.50 -223.20 -213.90 -204.60 -195.30 -186.00 -176.70 -167.40 -158.10 -148.80 -139.50 -130.20 -120.90 -111.60 -102.30  -93.00  -83.70  -74.40  -65.10  -55.80  -46.50  -37.20  -27.90  -18.60   -9.30    0.00    9.30   18.60   27.90   37.20   46.50   55.80   65.10   74.40   83.70   93.00  102.30  111.60  120.90  130.20  139.50  148.80  158.10  167.40  176.70  186.00  195.30  204.60  213.90  223.20  232.50  241.80  251.10  260.40  269.70  279.00  288.30  297.60  306.90  316.20  325.50  334.80  344.10  353.40  362.70  372.00  381.30  390.60  399.90  409.20  418.50  427.80  437.10  446.40  455.70  465.00  474.30  483.60  492.90  502.20  511.50  520.80  530.10  539.40  548.70  558.00  567.30  576.60  585.90  595.20  604.50  613.80  623.10  632.40  641.70  651.00  660.30  669.60  678.90  688.20  697.50  706.80  716.10  725.40  734.70  744.00  753.30  762.60  771.90  781.20  790.50  799.80  809.10  818.40  827.70  837.00  846.30  855.60  864.90  874.20  883.50  892.80

   Height   Standard deviation at grid points for the u component:
   354.40    0.439   0.435   0.476   0.473   0.490   0.494   0.470   0.433   0.437   0.430   0.434   0.446   0.461   0.463   0.495   0.481   0.473   0.502   0.498   0.478   0.498   0.519   0.509   0.490   0.461   0.438   0.452   0.508   0.526   0.523   0.490   0.485   0.490   0.488   0.451   0.456   0.486   0.471   0.483   0.446   0.453   0.494   0.433   0.479   0.490   0.491   0.509   0.473   0.487   0.489   0.499   0.484   0.477   0.462   0.461   0.445   0.444   0.477   0.455   0.438   0.416   0.411   0.452   0.421   0.422   0.461   0.430   0.448   0.432   0.412   0.450   0.476   0.445   0.437   0.465   0.455   0.437   0.432   0.457   0.481   0.485   0.541   0.515   0.464   0.482   0.452   0.451   0.507   0.472   0.467   0.459   0.467   0.497   0.504   0.517   0.506   0.507   0.490   0.483   0.469   0.450   0.449   0.425   0.448   0.420   0.421   0.414   0.429   0.391   0.412   0.383   0.408   0.400   0.432   0.432   0.447   0.436   0.429   0.443   0.483   0.493   0.479   0.469   0.490   0.442   0.404   0.403   0.372   0.421   0.413   0.416   0.410   0.379   0.399   0.406   0.385   0.388   0.401   0.438   0.482   0.491   0.496   0.469   0.485   0.497   0.465   0.459   0.510   0.502   0.481   0.504   0.451   0.455   0.428   0.455   0.439   0.484   0.515   0.522   0.523   0.547   0.548   0.568   0.583   0.598   0.606   0.659   0.604   0.663   0.694   0.682   0.654   0.597   0.626   0.635   0.613   0.621   0.585   0.572   0.566   0.578   0.567   0.576   0.592   0.566   0.566   0.595   0.592   0.581   0.540   0.548   0.515   0.542
   345.10    0.454   0.460   0.477   0.466   0.466   0.482   0.467   0.441   0.423   0.456   0.483   0.442   0.460   0.490   0.485   0.508   0.482   0.523   0.524   0.496   0.492   0.458   0.482   0.504   0.485   0.472   0.501   0.508   0.531   0.526   0.503   0.504   0.488   0.488   0.501   0.458   0.447   0.461   0.453   0.446   0.435   0.445   0.448   0.468   0.479   0.492   0.534   0.505   0.483   0.467   0.455   0.507   0.464   0.455   0.482   0.462   0.472   0.507   0.465   0.435   0.392   0.409   0.425   0.425   0.445   0.444   0.450   0.444   0.433   0.413   0.453   0.452   0.437   0.447   0.464   0.464   0.452   0.475   0.477   0.441   0.494   0.511   0.493   0.481   0.478   0.441   0.460   0.473   0.477   0.473   0.481   0.443   0.477   0.474   0.491   0.509   0.524   0.508   0.470   0.458   0.436   0.419   0.403   0.414   0.416   0.385   0.388   0.382   0.379   0.390   0.389   0.419   0.419   0.436   0.443   0.457   0.459   0.458   0.471   0.493   0.505   0.490   0.469   0.469   0.444   0.414   0.399   0.372   0.392   0.418   0.413   0.416   0.414   0.410   0.431   0.384   0.384   0.431   0.422   0.461   0.484   0.462   0.472   0.492   0.483   0.433   0.453   0.471   0.447   0.475   0.483   0.468   0.447   0.476   0.483   0.511   0.504   0.538   0.543   0.568   0.566   0.547   0.544   0.559   0.593   0.585   0.612   0.605   0.650   0.695   0.692   0.657   0.610   0.610   0.674   0.647   0.611   0.616   0.627   0.576   0.580   0.591   0.615   0.604   0.587   0.567   0.577   0.554   0.541   0.525   0.541   0.536   0.552
   335.80    0.464   0.440   0.434   0.435   0.439   0.456   0.467   0.427   0.417   0.464   0.471   0.494   0.486   0.481   0.490   0.504   0.506   0.522   0.536   0.508   0.467   0.505   0.514   0.506   0.509   0.503   0.511   0.505   0.496   0.518   0.509   0.503   0.485   0.527   0.490   0.464   0.440   0.406   0.388   0.414   0.457   0.448   0.445   0.417   0.462   0.482   0.494   0.494   0.470   0.470   0.438   0.461   0.463   0.473   0.489   0.492   0.497   0.481   0.435   0.420   0.421   0.411   0.426   0.418   0.431   0.422   0.437   0.467   0.446   0.475   0.452   0.403   0.439   0.461   0.464   0.449   0.451   0.463   0.457   0.452   0.452   0.496   0.490   0.464   0.437   0.444   0.447   0.437   0.441   0.478   0.461   0.455   0.457   0.460   0.497   0.497   0.490   0.492   0.465   0.432   0.433   0.418   0.397   0.368   0.416   0.393   0.385   0.398   0.408   0.381   0.385   0.411   0.424   0.426   0.417   0.441   0.493   0.510   0.510   0.497   0.492   0.470   0.472   0.489   0.448   0.419   0.434   0.408   0.397   0.393   0.396   0.414   0.423   0.445   0.430   0.425   0.402   0.443   0.426   0.443   0.457   0.462   0.492   0.464   0.475   0.450   0.452   0.472   0.488   0.473   0.490   0.461   0.499   0.484   0.502   0.502   0.530   0.531   0.528   0.581   0.584   0.548   0.530   0.567   0.627   0.607   0.599   0.624   0.624   0.655   0.638   0.645   0.668   0.677   0.702   0.706   0.643   0.636   0.600   0.613   0.601   0.607   0.610   0.572   0.588   0.619   0.590   0.572   0.534   0.561   0.546   0.542   0.544
   326.50    0.435   0.444   0.423   0.442   0.434   0.428   0.404   0.422   0.407   0.421   0.466   0.496   0.509   0.479   0.471   0.457   0.493   0.540   0.528   0.518   0.505   0.493   0.539   0.535   0.545   0.508   0.500   0.509   0.514   0.549   0.548   0.513   0.485   0.513   0.527   0.453   0.403   0.379   0.384   0.392   0.424   0.442   0.478   0.432   0.444   0.464   0.468   0.453   0.452   0.462   0.423   0.458   0.455   0.458   0.491   0.541   0.501   0.474   0.439   0.431   0.419   0.435   0.421   0.403   0.402   0.409   0.454   0.464   0.458   0.475   0.451   0.433   0.449   0.460   0.458   0.458   0.450   0.441   0.433   0.456   0.443   0.455   0.457   0.454   0.458   0.431   0.451   0.458   0.464   0.455   0.464   0.446   0.463   0.476   0.472   0.494   0.477   0.495   0.455   0.440   0.435   0.452   0.415   0.377   0.394   0.397   0.387   0.401   0.410   0.410   0.392   0.394   0.399   0.406   0.437   0.442   0.458   0.476   0.474   0.483   0.477   0.473   0.488   0.488   0.450   0.488   0.472   0.438   0.402   0.384   0.393   0.424   0.433   0.436   0.452   0.440   0.428   0.439   0.392   0.399   0.432   0.455   0.445   0.445   0.407   0.425   0.461   0.463   0.474   0.464   0.463   0.460   0.463   0.500   0.503   0.517   0.539   0.542   0.537   0.549   0.575   0.550   0.537   0.574   0.593   0.603   0.597   0.661   0.656   0.598   0.598   0.627   0.662   0.672   0.651   0.650   0.639   0.617   0.620   0.647   0.650   0.658   0.631   0.596   0.606   0.627   0.600   0.588   0.565   0.555   0.589   0.585   0.544
   317.20    0.429   0.434   0.414   0.434   0.448   0.457   0.436   0.404   0.438   0.440   0.438   0.473   0.512   0.535   0.478   0.483   0.493   0.513   0.517   0.516   0.524   0.515   0.528   0.538   0.514   0.505   0.496   0.482   0.529   0.556   0.522   0.480   0.477   0.511   0.515   0.438   0.395   0.389   0.363   0.360   0.370   0.410   0.432   0.430   0.418   0.438   0.459   0.460   0.443   0.465   0.447   0.454   0.443   0.446   0.466   0.519   0.509   0.452   0.447   0.425   0.414   0.436   0.416   0.424   0.419   0.409   0.432   0.447   0.430   0.425   0.437   0.434   0.454   0.444   0.465   0.448   0.455   0.475   0.435   0.428   0.437   0.466   0.466   0.433   0.431   0.435   0.457   0.460   0.445   0.466   0.465   0.499   0.451   0.452   0.485   0.471   0.476   0.486   0.446   0.493   0.441   0.448   0.429   0.431   0.447   0.437   0.418   0.403   0.403   0.418   0.418   0.429   0.407   0.427   0.465   0.469   0.455   0.477   0.495   0.496   0.505   0.501   0.489   0.495   0.488   0.490   0.477   0.447   0.393   0.375   0.385   0.400   0.409   0.452   0.457   0.450   0.440   0.410   0.424   0.428   0.433   0.464   0.450   0.444   0.422   0.449   0.480   0.465   0.437   0.465   0.471   0.456   0.478   0.501   0.464   0.453   0.496   0.518   0.549   0.551   0.556   0.519   0.567   0.578   0.566   0.571   0.576   0.616   0.628   0.610   0.573   0.615   0.629   0.644   0.618   0.625   0.625   0.604   0.596   0.626   0.619   0.642   0.638   0.632   0.599   0.601   0.637   0.643   0.585   0.609   0.598   0.617   0.552
   307.90    0.469   0.451   0.426   0.423   0.427   0.423   0.424   0.436   0.428   0.431   0.457   0.469   0.483   0.554   0.512   0.506   0.550   0.498   0.516   0.519   0.532   0.542   0.544   0.561   0.542   0.487   0.515   0.502   0.530   0.491   0.507   0.494   0.445   0.474   0.456   0.426   0.391   0.376   0.376   0.367   0.379   0.399   0.385   0.402   0.419   0.466   0.470   0.471   0.469   0.474   0.480   0.491   0.464   0.463   0.449   0.477   0.454   0.414   0.451   0.463   0.467   0.426   0.430   0.412   0.415   0.392   0.405   0.423   0.443   0.432   0.444   0.423   0.440   0.440   0.458   0.448   0.444   0.471   0.467   0.461   0.438   0.476   0.461   0.453   0.430   0.426   0.477   0.468   0.502   0.517   0.504   0.507   0.491   0.478   0.460   0.472   0.471   0.461   0.471   0.429   0.428   0.438   0.437   0.439   0.425   0.412   0.392   0.387   0.391   0.427   0.386   0.418   0.421   0.403   0.451   0.447   0.461   0.502   0.488   0.495   0.494   0.478   0.465   0.477   0.496   0.509   0.505   0.479   0.458   0.421   0.415   0.440   0.437   0.444   0.450   0.444   0.432   0.405   0.405   0.403   0.446   0.448   0.452   0.441   0.473   0.453   0.447   0.463   0.474   0.458   0.469   0.443   0.488   0.497   0.488   0.462   0.463   0.487   0.509   0.527   0.521   0.548   0.563   0.590   0.592   0.580   0.568   0.579   0.618   0.592   0.553   0.597   0.620   0.601   0.593   0.585   0.596   0.612   0.598   0.607   0.586   0.618   0.639   0.612   0.595   0.616   0.609   0.630   0.604   0.587   0.572   0.564   0.555
   298.60    0.458   0.447   0.449   0.420   0.403   0.442   0.443   0.487   0.452   0.460   0.439   0.477   0.497   0.506   0.516   0.558   0.561   0.493   0.509   0.535   0.566   0.539   0.526   0.505   0.511   0.484   0.460   0.475   0.494   0.480   0.469   0.458   0.423   0.430   0.448   0.392   0.406   0.374   0.356   0.376   0.418   0.433   0.393   0.419   0.426   0.433   0.450   0.422   0.442   0.471   0.487   0.477   0.435   0.439   0.433   0.433   0.430   0.420   0.463   0.462   0.439   0.420   0.449   0.423   0.427   0.420   0.419   0.425   0.412   0.410   0.415   0.398   0.407   0.443   0.453   0.449   0.442   0.441   0.465   0.480   0.453   0.460   0.462   0.448   0.423   0.426   0.477   0.504   0.500   0.511   0.475   0.469   0.491   0.466   0.473   0.468   0.467   0.458   0.419   0.420   0.437   0.441   0.433   0.432   0.411   0.401   0.371   0.394   0.397   0.408   0.415   0.389   0.430   0.422   0.413   0.436   0.456   0.462   0.464   0.434   0.482   0.462   0.476   0.477   0.466   0.500   0.501   0.444   0.475   0.471   0.459   0.467   0.461   0.420   0.417   0.423   0.436   0.401   0.411   0.427   0.458   0.464   0.428   0.446   0.419   0.429   0.436   0.438   0.471   0.462   0.452   0.480   0.493   0.480   0.493   0.488   0.493   0.488   0.477   0.516   0.522   0.538   0.557   0.581   0.585   0.568   0.559   0.535   0.538   0.557   0.560   0.564   0.588   0.553   0.571   0.584   0.592   0.604   0.577   0.599   0.604   0.623   0.602   0.630   0.633   0.611   0.584   0.584   0.573   0.569   0.565   0.548   0.544
   289.30    0.446   0.434   0.415   0.458   0.453   0.463   0.441   0.451   0.436   0.456   0.460   0.471   0.472   0.475   0.525   0.538   0.536   0.532   0.505   0.534   0.535   0.534   0.532   0.496   0.517   0.503   0.466   0.456   0.466   0.454   0.434   0.436   0.399   0.417   0.406   0.382   0.391   0.372   0.374   0.391   0.388   0.398   0.399   0.404   0.425   0.417   0.413   0.426   0.443   0.448   0.453   0.447   0.414   0.401   0.418   0.418   0.454   0.458   0.473   0.454   0.421   0.459   0.456   0.434   0.441   0.425   0.427   0.437   0.433   0.417   0.389   0.394   0.401   0.442   0.442   0.431   0.432   0.458   0.471   0.447   0.464   0.453   0.411   0.418   0.419   0.420   0.468   0.482   0.494   0.483   0.444   0.455   0.436   0.462   0.472   0.460   0.482   0.449   0.467   0.477   0.461   0.446   0.450   0.455   0.448   0.390   0.402   0.413   0.385   0.416   0.437   0.424   0.431   0.443   0.429   0.424   0.443   0.448   0.451   0.460   0.466   0.462   0.459   0.472   0.445   0.471   0.493   0.467   0.476   0.464   0.461   0.475   0.488   0.467   0.409   0.410   0.420   0.403   0.413   0.453   0.452   0.454   0.423   0.419   0.443   0.430   0.419   0.448   0.452   0.468   0.450   0.467   0.480   0.460   0.458   0.476   0.473   0.501   0.522   0.507   0.501   0.536   0.554   0.546   0.545   0.535   0.508   0.515   0.502   0.503   0.522   0.518   0.540   0.541   0.560   0.590   0.597   0.598   0.583   0.597   0.603   0.638   0.639   0.651   0.624   0.579   0.545   0.564   0.525   0.553   0.556   0.526   0.507
   280.00    0.437   0.470   0.457   0.486   0.457   0.446   0.406   0.429   0.432   0.432   0.432   0.481   0.496   0.481   0.526   0.525   0.516   0.484   0.517   0.508   0.517   0.512   0.519   0.495   0.491   0.486   0.446   0.461   0.468   0.469   0.454   0.439   0.407   0.407   0.413   0.410   0.414   0.417   0.397   0.364   0.369   0.397   0.403   0.433   0.432   0.417   0.421   0.438   0.427   0.414   0.420   0.394   0.402   0.406   0.397   0.424   0.445   0.460   0.470   0.466   0.421   0.428   0.436   0.440   0.437   0.422   0.425   0.446   0.439   0.439   0.404   0.408   0.412   0.428   0.425   0.451   0.435   0.460   0.443   0.464   0.476   0.459   0.415   0.426   0.427   0.424   0.462   0.480   0.479   0.496   0.468   0.450   0.446   0.453   0.480   0.478   0.472   0.468   0.479   0.474   0.482   0.479   0.452   0.456   0.426   0.424   0.410   0.401   0.404   0.441   0.430   0.434   0.447   0.447   0.440   0.443   0.448   0.433   0.450   0.465   0.462   0.472   0.469   0.471   0.477   0.488   0.502   0.476   0.462   0.450   0.481   0.479   0.470   0.432   0.409   0.399   0.412   0.414   0.456   0.401   0.422   0.439   0.407   0.416   0.436   0.446   0.428   0.451   0.458   0.470   0.454   0.442   0.443   0.481   0.526   0.507   0.510   0.512   0.537   0.512   0.503   0.511   0.528   0.513   0.510   0.525   0.520   0.506   0.495   0.499   0.496   0.519   0.510   0.555   0.582   0.596   0.576   0.580   0.598   0.587   0.618   0.640   0.644   0.644   0.625   0.577   0.553   0.496   0.515   0.522   0.555   0.521   0.500
   270.70    0.441   0.470   0.487   0.475   0.473   0.472   0.401   0.428   0.447   0.439   0.443   0.479   0.489   0.512   0.500   0.501   0.510   0.508   0.501   0.509   0.525   0.522   0.483   0.481   0.472   0.476   0.461   0.446   0.460   0.443   0.421   0.419   0.409   0.395   0.403   0.412   0.387   0.395   0.409   0.395   0.374   0.389   0.397   0.415   0.434   0.450   0.448   0.445   0.439   0.391   0.390   0.374   0.400   0.402   0.416   0.450   0.444   0.476   0.478   0.446   0.432   0.418   0.411   0.431   0.445   0.434   0.429   0.433   0.435   0.440   0.411   0.392   0.407   0.430   0.443   0.447   0.441   0.451   0.437   0.448   0.461   0.441   0.428   0.426   0.427   0.428   0.474   0.492   0.501   0.488   0.473   0.445   0.444   0.433   0.454   0.486   0.482   0.445   0.436   0.471   0.498   0.466   0.449   0.469   0.451   0.423   0.431   0.401   0.414   0.429   0.459   0.458   0.494   0.447   0.428   0.423   0.433   0.448   0.464   0.472   0.483   0.461   0.491   0.474   0.456   0.499   0.516   0.476   0.463   0.469   0.498   0.460   0.469   0.440   0.397   0.388   0.409   0.426   0.452   0.414   0.427   0.420   0.422   0.420   0.454   0.468   0.426   0.477   0.502   0.515   0.500   0.477   0.478   0.503   0.527   0.546   0.550   0.523   0.518   0.521   0.503   0.508   0.489   0.515   0.512   0.495   0.491   0.477   0.464   0.489   0.483   0.484   0.508   0.517   0.538   0.543   0.564   0.582   0.569   0.588   0.570   0.595   0.603   0.615   0.631   0.609   0.563   0.554   0.561   0.563   0.522   0.511   0.503
   261.40    0.493   0.467   0.480   0.495   0.495   0.458   0.442   0.475   0.446   0.423   0.447   0.443   0.439   0.476   0.496   0.508   0.510   0.543   0.515   0.507   0.485   0.470   0.473   0.472   0.480   0.473   0.427   0.418   0.413   0.429   0.443   0.417   0.426   0.416   0.379   0.373   0.395   0.403   0.386   0.389   0.379   0.373   0.398   0.445   0.439   0.412   0.416   0.422   0.432   0.419   0.395   0.426   0.440   0.397   0.396   0.493   0.473   0.485   0.474   0.461   0.444   0.430   0.414   0.426   0.465   0.462   0.452   0.425   0.392   0.407   0.436   0.390   0.429   0.439   0.415   0.437   0.460   0.426   0.446   0.451   0.475   0.481   0.461   0.465   0.444   0.484   0.490   0.501   0.473   0.474   0.502   0.464   0.460   0.460   0.442   0.464   0.458   0.452   0.453   0.482   0.483   0.469   0.453   0.433   0.437   0.455   0.459   0.430   0.441   0.427   0.452   0.432   0.458   0.475   0.440   0.394   0.441   0.431   0.493   0.494   0.475   0.473   0.470   0.461   0.463   0.472   0.464   0.466   0.481   0.464   0.490   0.472   0.443   0.444   0.411   0.376   0.423   0.411   0.427   0.456   0.437   0.434   0.427   0.427   0.453   0.439   0.435   0.495   0.541   0.508   0.547   0.529   0.506   0.526   0.585   0.588   0.557   0.526   0.526   0.514   0.485   0.511   0.514   0.521   0.492   0.481   0.472   0.461   0.499   0.498   0.485   0.482   0.515   0.498   0.515   0.545   0.566   0.578   0.554   0.569   0.575   0.582   0.584   0.586   0.597   0.564   0.565   0.544   0.549   0.553   0.483   0.482   0.493
   252.10    0.502   0.482   0.470   0.465   0.475   0.479   0.470   0.461   0.471   0.438   0.457   0.460   0.430   0.453   0.479   0.518   0.494   0.501   0.545   0.511   0.488   0.489   0.471   0.470   0.462   0.448   0.416   0.412   0.396   0.411   0.424   0.427   0.411   0.399   0.395   0.394   0.398   0.424   0.433   0.422   0.407   0.398   0.412   0.413   0.431   0.435   0.438   0.437   0.427   0.439   0.420   0.436   0.425   0.411   0.436   0.475   0.511   0.542   0.490   0.453   0.442   0.444   0.407   0.417   0.417   0.448   0.435   0.418   0.395   0.400   0.411   0.399   0.408   0.397   0.433   0.444   0.435   0.425   0.421   0.455   0.476   0.470   0.463   0.502   0.486   0.490   0.502   0.500   0.490   0.496   0.482   0.485   0.472   0.461   0.442   0.467   0.453   0.441   0.435   0.447   0.478   0.460   0.439   0.443   0.464   0.481   0.470   0.468   0.474   0.445   0.441   0.448   0.430   0.450   0.418   0.433   0.455   0.452   0.463   0.488   0.483   0.490   0.488   0.432   0.440   0.448   0.471   0.450   0.465   0.476   0.461   0.445   0.432   0.450   0.453   0.404   0.424   0.419   0.431   0.415   0.432   0.444   0.437   0.434   0.481   0.477   0.441   0.470   0.515   0.494   0.510   0.524   0.508   0.555   0.576   0.582   0.593   0.532   0.509   0.486   0.495   0.496   0.485   0.479   0.502   0.504   0.521   0.490   0.516   0.521   0.494   0.501   0.504   0.494   0.490   0.496   0.547   0.572   0.544   0.548   0.554   0.587   0.601   0.538   0.571   0.551   0.533   0.556   0.566   0.505   0.508   0.484   0.474
   242.80    0.472   0.474   0.473   0.476   0.449   0.467   0.476   0.474   0.474   0.483   0.481   0.486   0.469   0.463   0.484   0.487   0.501   0.483   0.519   0.506   0.467   0.485   0.509   0.512   0.454   0.447   0.447   0.459   0.403   0.424   0.414   0.427   0.392   0.395   0.408   0.428   0.446   0.438   0.437   0.455   0.420   0.444   0.433   0.451   0.435   0.439   0.463   0.452   0.448   0.458   0.423   0.435   0.448   0.452   0.427   0.452   0.507   0.529   0.526   0.445   0.473   0.429   0.425   0.422   0.415   0.409   0.404   0.433   0.396   0.393   0.389   0.393   0.437   0.419   0.427   0.436   0.445   0.457   0.432   0.455   0.494   0.490   0.503   0.512   0.468   0.478   0.474   0.487   0.512   0.481   0.446   0.453   0.474   0.483   0.490   0.510   0.475   0.458   0.467   0.457   0.478   0.485   0.481   0.456   0.461   0.473   0.495   0.480   0.484   0.471   0.448   0.487   0.469   0.467   0.464   0.444   0.458   0.447   0.439   0.474   0.478   0.478   0.495   0.467   0.455   0.465   0.463   0.462   0.455   0.479   0.454   0.425   0.437   0.424   0.429   0.441   0.429   0.454   0.432   0.444   0.428   0.453   0.459   0.465   0.476   0.428   0.454   0.455   0.484   0.495   0.487   0.484   0.523   0.545   0.545   0.572   0.591   0.555   0.495   0.471   0.500   0.483   0.493   0.486   0.500   0.528   0.483   0.523   0.511   0.511   0.497   0.495   0.498   0.485   0.498   0.504   0.543   0.549   0.535   0.585   0.624   0.617   0.626   0.577   0.588   0.563   0.550   0.546   0.542   0.529   0.457   0.496   0.496
   233.50    0.512   0.501   0.506   0.453   0.439   0.446   0.469   0.471   0.497   0.464   0.488   0.516   0.520   0.468   0.476   0.460   0.500   0.501   0.517   0.482   0.489   0.455   0.504   0.485   0.457   0.429   0.448   0.459   0.433   0.431   0.434   0.438   0.406   0.399   0.439   0.444   0.467   0.445   0.476   0.491   0.458   0.466   0.430   0.446   0.429   0.448   0.431   0.446   0.442   0.441   0.425   0.405   0.431   0.440   0.458   0.474   0.493   0.513   0.491   0.437   0.444   0.426   0.394   0.396   0.394   0.406   0.388   0.410   0.395   0.405   0.406   0.392   0.409   0.410   0.411   0.433   0.469   0.457   0.448   0.475   0.477   0.476   0.485   0.477   0.463   0.447   0.476   0.500   0.504   0.454   0.428   0.465   0.483   0.513   0.508   0.521   0.469   0.445   0.462   0.451   0.495   0.489   0.481   0.448   0.457   0.462   0.471   0.463   0.481   0.490   0.500   0.519   0.507   0.524   0.476   0.460   0.428   0.422   0.445   0.440   0.461   0.447   0.434   0.439   0.406   0.414   0.467   0.491   0.492   0.502   0.459   0.460   0.440   0.443   0.452   0.433   0.450   0.396   0.412   0.426   0.430   0.417   0.430   0.457   0.460   0.418   0.452   0.436   0.459   0.456   0.433   0.499   0.531   0.551   0.550   0.586   0.555   0.595   0.536   0.505   0.482   0.483   0.505   0.527   0.543   0.525   0.509   0.532   0.500   0.463   0.512   0.492   0.502   0.492   0.501   0.542   0.552   0.570   0.581   0.582   0.615   0.592   0.600   0.578   0.577   0.558   0.538   0.549   0.563   0.506   0.495   0.503   0.501
   224.20    0.489   0.532   0.485   0.471   0.439   0.450   0.469   0.467   0.518   0.493   0.485   0.491   0.522   0.502   0.469   0.479   0.452   0.474   0.492   0.477   0.483   0.529   0.508   0.470   0.474   0.474   0.437   0.462   0.441   0.420   0.427   0.407   0.392   0.373   0.388   0.421   0.446   0.451   0.471   0.487   0.474   0.486   0.480   0.464   0.467   0.494   0.460   0.455   0.466   0.437   0.415   0.457   0.447   0.463   0.462   0.459   0.473   0.474   0.460   0.432   0.432   0.427   0.409   0.403   0.408   0.437   0.398   0.381   0.413   0.419   0.414   0.417   0.403   0.422   0.434   0.441   0.474   0.471   0.434   0.459   0.493   0.477   0.489   0.442   0.414   0.431   0.446   0.513   0.483   0.443   0.479   0.479   0.476   0.488   0.475   0.478   0.482   0.475   0.443   0.461   0.496   0.485   0.491   0.457   0.432   0.453   0.460   0.452   0.461   0.474   0.456   0.462   0.493   0.511   0.501   0.466   0.436   0.446   0.442   0.424   0.457   0.420   0.419   0.434   0.453   0.443   0.463   0.467   0.484   0.495   0.502   0.489   0.462   0.468   0.432   0.414   0.423   0.390   0.398   0.410   0.423   0.437   0.430   0.438   0.456   0.440   0.467   0.457   0.459   0.460   0.465   0.501   0.545   0.551   0.550   0.578   0.564   0.557   0.514   0.529   0.498   0.491   0.495   0.504   0.500   0.515   0.536   0.553   0.528   0.502   0.514   0.507   0.509   0.501   0.520   0.537   0.528   0.541   0.568   0.573   0.611   0.553   0.587   0.571   0.570   0.547   0.514   0.525   0.545   0.520   0.516   0.491   0.506
   214.90    0.527   0.530   0.474   0.426   0.434   0.416   0.459   0.471   0.478   0.473   0.474   0.482   0.480   0.435   0.431   0.419   0.419   0.427   0.433   0.413   0.454   0.477   0.504   0.484   0.484   0.457   0.460   0.457   0.432   0.385   0.385   0.384   0.391   0.395   0.407   0.405   0.405   0.455   0.454   0.499   0.487   0.507   0.504   0.509   0.480   0.481   0.456   0.454   0.439   0.437   0.460   0.457   0.458   0.443   0.431   0.455   0.464   0.472   0.459   0.424   0.440   0.424   0.430   0.426   0.416   0.425   0.425   0.395   0.378   0.407   0.410   0.435   0.411   0.393   0.384   0.434   0.465   0.488   0.449   0.453   0.473   0.476   0.474   0.447   0.402   0.443   0.457   0.484   0.472   0.490   0.450   0.494   0.460   0.477   0.456   0.479   0.462   0.457   0.447   0.456   0.484   0.478   0.479   0.478   0.433   0.480   0.495   0.461   0.446   0.460   0.446   0.475   0.504   0.504   0.510   0.491   0.476   0.433   0.440   0.446   0.422   0.411   0.398   0.435   0.461   0.471   0.464   0.464   0.457   0.488   0.481   0.513   0.478   0.451   0.437   0.424   0.435   0.413   0.404   0.419   0.446   0.439   0.453   0.464   0.443   0.441   0.454   0.473   0.503   0.496   0.489   0.497   0.538   0.541   0.541   0.540   0.557   0.551   0.515   0.507   0.516   0.485   0.490   0.499   0.515   0.531   0.539   0.538   0.575   0.520   0.498   0.490   0.520   0.531   0.509   0.524   0.500   0.531   0.552   0.574   0.554   0.563   0.572   0.578   0.559   0.554   0.532   0.537   0.542   0.500   0.476   0.484   0.500
   205.60    0.550   0.504   0.456   0.420   0.438   0.451   0.471   0.445   0.456   0.477   0.453   0.484   0.451   0.432   0.406   0.416   0.418   0.416   0.393   0.410   0.425   0.467   0.517   0.521   0.473   0.454   0.464   0.463   0.437   0.393   0.400   0.390   0.387   0.399   0.392   0.410   0.424   0.430   0.433   0.477   0.471   0.499   0.496   0.474   0.447   0.459   0.424   0.466   0.439   0.446   0.431   0.438   0.461   0.436   0.430   0.447   0.454   0.472   0.446   0.442   0.456   0.443   0.428   0.423   0.410   0.383   0.383   0.394   0.378   0.391   0.393   0.386   0.400   0.388   0.372   0.388   0.424   0.451   0.464   0.462   0.459   0.483   0.444   0.438   0.432   0.436   0.447   0.461   0.448   0.447   0.458   0.460   0.477   0.489   0.495   0.462   0.444   0.455   0.460   0.437   0.471   0.470   0.465   0.460   0.460   0.468   0.463   0.485   0.452   0.484   0.465   0.473   0.462   0.484   0.495   0.502   0.506   0.462   0.425   0.442   0.469   0.447   0.427   0.400   0.454   0.464   0.484   0.437   0.473   0.487   0.481   0.483   0.475   0.450   0.468   0.453   0.453   0.424   0.445   0.433   0.464   0.455   0.432   0.472   0.456   0.463   0.452   0.489   0.509   0.480   0.514   0.501   0.524   0.559   0.572   0.553   0.543   0.548   0.511   0.517   0.513   0.504   0.479   0.483   0.497   0.529   0.539   0.531   0.578   0.532   0.527   0.515   0.538   0.548   0.574   0.542   0.530   0.518   0.540   0.531   0.531   0.548   0.556   0.528   0.505   0.518   0.545   0.532   0.550   0.499   0.491   0.496   0.486
   196.30    0.530   0.513   0.486   0.469   0.466   0.457   0.466   0.465   0.493   0.487   0.455   0.481   0.442   0.422   0.434   0.435   0.437   0.409   0.438   0.450   0.441   0.473   0.493   0.517   0.497   0.461   0.480   0.484   0.461   0.423   0.411   0.428   0.420   0.374   0.359   0.396   0.433   0.431   0.430   0.448   0.463   0.465   0.485   0.471   0.453   0.451   0.426   0.463   0.439   0.410   0.415   0.432   0.431   0.413   0.422   0.448   0.444   0.473   0.445   0.482   0.479   0.433   0.425   0.419   0.412   0.405   0.386   0.408   0.376   0.392   0.367   0.378   0.381   0.397   0.388   0.398   0.412   0.410   0.411   0.425   0.433   0.446   0.446   0.466   0.460   0.435   0.452   0.463   0.440   0.442   0.422   0.443   0.458   0.461   0.467   0.451   0.463   0.450   0.482   0.459   0.452   0.467   0.468   0.459   0.458   0.484   0.476   0.457   0.428   0.426   0.448   0.466   0.476   0.497   0.492   0.477   0.488   0.450   0.445   0.443   0.460   0.454   0.428   0.434   0.446   0.455   0.456   0.440   0.462   0.470   0.459   0.483   0.498   0.462   0.482   0.481   0.462   0.459   0.421   0.432   0.435   0.425   0.454   0.441   0.475   0.482   0.482   0.513   0.535   0.511   0.509   0.514   0.546   0.570   0.611   0.590   0.578   0.534   0.513   0.531   0.527   0.495   0.507   0.475   0.499   0.496   0.548   0.546   0.547   0.534   0.528   0.554   0.545   0.587   0.610   0.564   0.520   0.507   0.499   0.516   0.505   0.527   0.502   0.480   0.472   0.510   0.516   0.533   0.529   0.499   0.473   0.493   0.462
   187.00    0.516   0.520   0.499   0.475   0.470   0.475   0.438   0.465   0.457   0.452   0.462   0.461   0.425   0.437   0.436   0.438   0.433   0.434   0.437   0.435   0.440   0.457   0.514   0.504   0.479   0.472   0.497   0.497   0.472   0.437   0.441   0.426   0.399   0.404   0.404   0.439   0.428   0.438   0.425   0.430   0.449   0.482   0.471   0.476   0.445   0.455   0.451   0.409   0.420   0.407   0.424   0.410   0.419   0.418   0.414   0.442   0.427   0.446   0.440   0.475   0.466   0.466   0.410   0.402   0.386   0.373   0.384   0.396   0.393   0.391   0.365   0.378   0.409   0.397   0.416   0.420   0.413   0.381   0.390   0.393   0.429   0.408   0.432   0.428   0.424   0.448   0.460   0.453   0.413   0.444   0.396   0.427   0.457   0.429   0.456   0.497   0.489   0.501   0.482   0.474   0.482   0.456   0.452   0.456   0.473   0.466   0.463   0.441   0.464   0.439   0.463   0.475   0.478   0.480   0.489   0.504   0.482   0.462   0.455   0.448   0.459   0.455   0.450   0.462   0.446   0.440   0.447   0.479   0.512   0.493   0.479   0.497   0.507   0.513   0.489   0.466   0.453   0.450   0.454   0.425   0.444   0.459   0.447   0.458   0.461   0.452   0.532   0.536   0.568   0.554   0.541   0.534   0.562   0.551   0.589   0.554   0.550   0.532   0.497   0.517   0.523   0.483   0.513   0.536   0.503   0.500   0.544   0.535   0.545   0.538   0.527   0.543   0.565   0.599   0.585   0.579   0.520   0.493   0.515   0.524   0.523   0.520   0.493   0.481   0.486   0.509   0.475   0.497   0.492   0.456   0.456   0.462   0.476
   177.70    0.498   0.493   0.485   0.472   0.464   0.465   0.453   0.474   0.472   0.474   0.432   0.420   0.435   0.440   0.431   0.419   0.434   0.423   0.438   0.464   0.474   0.487   0.521   0.544   0.505   0.526   0.483   0.472   0.484   0.452   0.452   0.427   0.429   0.439   0.451   0.412   0.424   0.403   0.395   0.414   0.446   0.461   0.469   0.457   0.454   0.456   0.436   0.410   0.410   0.411   0.405   0.400   0.417   0.405   0.425   0.434   0.443   0.413   0.434   0.461   0.455   0.453   0.436   0.392   0.389   0.368   0.373   0.401   0.414   0.439   0.392   0.401   0.426   0.421   0.415   0.429   0.425   0.404   0.402   0.416   0.411   0.421   0.414   0.426   0.441   0.424   0.458   0.447   0.441   0.422   0.409   0.447   0.446   0.467   0.489   0.525   0.506   0.497   0.491   0.488   0.434   0.457   0.464   0.458   0.460   0.490   0.466   0.462   0.431   0.423   0.458   0.464   0.467   0.449   0.492   0.471   0.467   0.503   0.486   0.465   0.474   0.503   0.466   0.467   0.459   0.424   0.430   0.464   0.508   0.500   0.487   0.496   0.525   0.499   0.484   0.488   0.508   0.488   0.448   0.459   0.470   0.445   0.468   0.456   0.453   0.462   0.500   0.551   0.527   0.538   0.569   0.580   0.567   0.580   0.565   0.517   0.552   0.484   0.471   0.489   0.519   0.512   0.542   0.526   0.543   0.540   0.548   0.533   0.562   0.545   0.554   0.545   0.539   0.572   0.556   0.522   0.527   0.477   0.521   0.520   0.515   0.505   0.470   0.456   0.458   0.460   0.498   0.482   0.477   0.469   0.437   0.442   0.464
   168.40    0.468   0.487   0.479   0.513   0.510   0.481   0.487   0.467   0.473   0.459   0.429   0.450   0.435   0.419   0.430   0.450   0.445   0.468   0.441   0.470   0.492   0.520   0.526   0.545   0.510   0.496   0.468   0.440   0.462   0.467   0.447   0.423   0.443   0.443   0.419   0.430   0.413   0.393   0.396   0.409   0.419   0.440   0.468   0.436   0.447   0.448   0.428   0.422   0.407   0.428   0.432   0.387   0.392   0.407   0.432   0.424   0.422   0.425   0.434   0.457   0.456   0.441   0.425   0.412   0.401   0.375   0.376   0.412   0.425   0.434   0.410   0.427   0.425   0.405   0.425   0.419   0.416   0.415   0.414   0.404   0.395   0.393   0.426   0.443   0.428   0.420   0.424   0.446   0.456   0.477   0.454   0.474   0.473   0.494   0.498   0.476   0.514   0.516   0.518   0.505   0.469   0.477   0.481   0.471   0.485   0.469   0.479   0.477   0.447   0.466   0.462   0.450   0.456   0.465   0.488   0.455   0.485   0.490   0.502   0.479   0.485   0.532   0.488   0.485   0.484   0.455   0.438   0.468   0.448   0.465   0.464   0.487   0.479   0.493   0.488   0.466   0.489   0.471   0.470   0.477   0.455   0.461   0.472   0.447   0.461   0.500   0.520   0.528   0.517   0.522   0.556   0.548   0.534   0.551   0.554   0.506   0.532   0.502   0.505   0.513   0.519   0.536   0.533   0.541   0.531   0.540   0.557   0.531   0.545   0.534   0.539   0.515   0.574   0.559   0.507   0.513   0.518   0.506   0.517   0.504   0.487   0.489   0.447   0.459   0.460   0.465   0.464   0.481   0.466   0.431   0.450   0.450   0.463
   159.10    0.469   0.471   0.457   0.500   0.484   0.461   0.482   0.447   0.460   0.407   0.434   0.458   0.435   0.449   0.410   0.433   0.398   0.417   0.450   0.467   0.527   0.526   0.476   0.497   0.521   0.509   0.464   0.451   0.453   0.463   0.459   0.444   0.406   0.445   0.439   0.416   0.403   0.420   0.421   0.414   0.420   0.429   0.444   0.442   0.456   0.457   0.437   0.401   0.432   0.428   0.427   0.440   0.402   0.422   0.421   0.427   0.413   0.463   0.461   0.449   0.424   0.473   0.433   0.418   0.404   0.412   0.400   0.418   0.422   0.442   0.413   0.403   0.408   0.429   0.403   0.424   0.419   0.398   0.397   0.407   0.408   0.371   0.408   0.451   0.427   0.446   0.428   0.461   0.445   0.458   0.485   0.481   0.467   0.471   0.494   0.492   0.527   0.520   0.524   0.479   0.463   0.459   0.457   0.485   0.497   0.470   0.485   0.497   0.482   0.468   0.452   0.445   0.481   0.483   0.466   0.476   0.479   0.467   0.473   0.466   0.503   0.514   0.504   0.491   0.462   0.481   0.470   0.458   0.452   0.461   0.513   0.522   0.495   0.506   0.479   0.463   0.485   0.475   0.494   0.495   0.500   0.481   0.473   0.432   0.484   0.516   0.491   0.501   0.505   0.516   0.523   0.526   0.516   0.515   0.520   0.496   0.496   0.518   0.518   0.481   0.482   0.491   0.485   0.515   0.511   0.525   0.546   0.487   0.500   0.501   0.494   0.497   0.521   0.539   0.523   0.510   0.482   0.467   0.473   0.455   0.450   0.461   0.435   0.453   0.454   0.480   0.475   0.464   0.445   0.472   0.452   0.466   0.452
   149.80    0.459   0.465   0.422   0.467   0.457   0.442   0.455   0.431   0.428   0.414   0.426   0.457   0.418   0.454   0.432   0.405   0.401   0.400   0.397   0.458   0.490   0.520   0.493   0.511   0.513   0.499   0.459   0.454   0.475   0.464   0.444   0.446   0.405   0.427   0.438   0.441   0.443   0.438   0.429   0.393   0.417   0.459   0.462   0.479   0.460   0.452   0.432   0.441   0.428   0.423   0.435   0.418   0.445   0.439   0.411   0.433   0.432   0.468   0.464   0.474   0.460   0.437   0.458   0.458   0.452   0.440   0.394   0.395   0.373   0.403   0.413   0.448   0.448   0.445   0.406   0.427   0.429   0.394   0.423   0.431   0.408   0.414   0.416   0.433   0.459   0.470   0.470   0.461   0.421   0.473   0.485   0.461   0.477   0.474   0.473   0.489   0.511   0.516   0.495   0.477   0.452   0.441   0.452   0.481   0.490   0.507   0.499   0.485   0.461   0.443   0.452   0.444   0.446   0.452   0.472   0.461   0.437   0.445   0.483   0.486   0.510   0.483   0.507   0.496   0.493   0.493   0.487   0.460   0.457   0.473   0.486   0.494   0.530   0.497   0.485   0.460   0.518   0.513   0.486   0.505   0.510   0.496   0.471   0.438   0.462   0.498   0.513   0.484   0.505   0.488   0.508   0.488   0.478   0.505   0.497   0.497   0.514   0.509   0.508   0.474   0.480   0.476   0.466   0.497   0.520   0.522   0.521   0.527   0.482   0.491   0.466   0.503   0.513   0.520   0.494   0.486   0.470   0.477   0.464   0.445   0.459   0.428   0.439   0.423   0.420   0.475   0.469   0.491   0.457   0.462   0.481   0.463   0.479
   140.50    0.465   0.461   0.442   0.442   0.434   0.430   0.458   0.402   0.432   0.394   0.409   0.430   0.427   0.421   0.408   0.375   0.404   0.369   0.383   0.407   0.443   0.477   0.482   0.499   0.485   0.469   0.444   0.461   0.446   0.453   0.416   0.452   0.446   0.461   0.449   0.448   0.452   0.439   0.431   0.439   0.429   0.454   0.437   0.464   0.449   0.413   0.427   0.427   0.451   0.422   0.431   0.418   0.434   0.453   0.446   0.462   0.490   0.483   0.467   0.468   0.467   0.468   0.464   0.448   0.470   0.473   0.429   0.392   0.365   0.395   0.408   0.435   0.446   0.473   0.400   0.410   0.418   0.425   0.410   0.451   0.463   0.419   0.466   0.484   0.485   0.487   0.501   0.457   0.450   0.474   0.461   0.460   0.442   0.476   0.480   0.450   0.492   0.487   0.481   0.465   0.499   0.499   0.492   0.437   0.469   0.497   0.486   0.472   0.448   0.429   0.445   0.433   0.434   0.444   0.452   0.444   0.471   0.468   0.471   0.485   0.459   0.497   0.504   0.495   0.471   0.500   0.482   0.461   0.471   0.455   0.475   0.492   0.510   0.506   0.534   0.546   0.555   0.534   0.526   0.538   0.518   0.506   0.491   0.485   0.493   0.514   0.500   0.485   0.486   0.479   0.481   0.452   0.453   0.501   0.492   0.499   0.513   0.500   0.480   0.467   0.446   0.449   0.498   0.475   0.500   0.511   0.512   0.498   0.465   0.488   0.496   0.464   0.470   0.478   0.486   0.471   0.455   0.442   0.439   0.435   0.442   0.423   0.436   0.408   0.432   0.471   0.463   0.477   0.461   0.443   0.444   0.492   0.484
   131.20    0.447   0.449   0.447   0.457   0.470   0.450   0.466   0.444   0.415   0.382   0.386   0.399   0.376   0.373   0.387   0.379   0.403   0.403   0.374   0.385   0.420   0.435   0.472   0.488   0.508   0.472   0.441   0.450   0.440   0.470   0.425   0.421   0.442   0.457   0.451   0.453   0.466   0.469   0.444   0.443   0.435   0.415   0.409   0.426   0.435   0.409   0.422   0.418   0.419   0.462   0.455   0.428   0.448   0.450   0.479   0.464   0.487   0.480   0.476   0.485   0.457   0.439   0.451   0.433   0.470   0.465   0.463   0.430   0.393   0.423   0.420   0.440   0.481   0.424   0.425   0.406   0.398   0.419   0.421   0.460   0.480   0.462   0.457   0.445   0.462   0.466   0.486   0.478   0.487   0.467   0.480   0.428   0.430   0.462   0.449   0.459   0.474   0.456   0.470   0.478   0.477   0.490   0.466   0.447   0.470   0.462   0.457   0.445   0.432   0.432   0.457   0.446   0.435   0.419   0.423   0.445   0.468   0.495   0.466   0.447   0.458   0.480   0.482   0.478   0.478   0.491   0.493   0.495   0.473   0.469   0.503   0.498   0.494   0.496   0.510   0.529   0.507   0.530   0.550   0.567   0.545   0.527   0.487   0.491   0.530   0.512   0.477   0.457   0.451   0.455   0.457   0.454   0.451   0.470   0.509   0.503   0.486   0.476   0.462   0.449   0.437   0.456   0.452   0.467   0.517   0.486   0.479   0.502   0.456   0.453   0.475   0.500   0.490   0.471   0.482   0.468   0.449   0.409   0.422   0.396   0.420   0.426   0.411   0.441   0.424   0.455   0.473   0.465   0.441   0.461   0.457   0.472   0.522
   121.90    0.454   0.454   0.473   0.494   0.478   0.437   0.448   0.445   0.389   0.378   0.361   0.379   0.402   0.362   0.356   0.369   0.408   0.405   0.404   0.403   0.410   0.427   0.442   0.487   0.497   0.479   0.506   0.485   0.495   0.476   0.491   0.447   0.423   0.439   0.460   0.470   0.454   0.450   0.457   0.463   0.445   0.438   0.437   0.423   0.431   0.440   0.439   0.466   0.464   0.450   0.434   0.453   0.456   0.464   0.488   0.491   0.475   0.453   0.463   0.483   0.466   0.444   0.409   0.434   0.437   0.465   0.440   0.407   0.407   0.408   0.425   0.432   0.455   0.470   0.446   0.437   0.421   0.416   0.430   0.466   0.457   0.461   0.458   0.439   0.434   0.440   0.469   0.459   0.480   0.502   0.473   0.447   0.452   0.453   0.436   0.443   0.436   0.456   0.446   0.465   0.485   0.487   0.486   0.447   0.433   0.464   0.445   0.443   0.449   0.431   0.432   0.440   0.413   0.407   0.425   0.439   0.456   0.468   0.443   0.435   0.455   0.456   0.463   0.451   0.453   0.473   0.465   0.475   0.486   0.495   0.520   0.510   0.475   0.482   0.550   0.544   0.525   0.538   0.547   0.528   0.499   0.496   0.504   0.508   0.509   0.496   0.467   0.450   0.466   0.450   0.448   0.448   0.426   0.466   0.477   0.461   0.458   0.438   0.450   0.464   0.463   0.475   0.453   0.467   0.468   0.470   0.458   0.457   0.428   0.429   0.463   0.496   0.497   0.498   0.500   0.478   0.452   0.403   0.390   0.379   0.409   0.395   0.420   0.417   0.423   0.439   0.438   0.467   0.469   0.456   0.479   0.501   0.528
   112.60    0.466   0.469   0.500   0.507   0.488   0.480   0.460   0.436   0.390   0.347   0.347   0.381   0.385   0.390   0.344   0.386   0.403   0.411   0.413   0.435   0.415   0.425   0.475   0.486   0.483   0.478   0.503   0.496   0.520   0.512   0.491   0.469   0.443   0.425   0.468   0.458   0.465   0.475   0.464   0.482   0.468   0.423   0.468   0.407   0.427   0.415   0.391   0.428   0.449   0.440   0.455   0.442   0.439   0.457   0.429   0.435   0.470   0.479   0.483   0.439   0.452   0.436   0.432   0.423   0.427   0.431   0.407   0.378   0.376   0.395   0.435   0.403   0.429   0.443   0.467   0.446   0.428   0.440   0.433   0.441   0.431   0.453   0.457   0.466   0.442   0.413   0.445   0.468   0.464   0.461   0.480   0.461   0.435   0.453   0.451   0.478   0.465   0.454   0.464   0.462   0.473   0.454   0.434   0.460   0.437   0.435   0.457   0.450   0.430   0.412   0.383   0.388   0.408   0.411   0.448   0.431   0.456   0.464   0.448   0.436   0.426   0.413   0.450   0.453   0.485   0.506   0.486   0.466   0.485   0.514   0.521   0.523   0.489   0.502   0.516   0.520   0.525   0.524   0.540   0.521   0.492   0.499   0.542   0.527   0.508   0.507   0.494   0.488   0.490   0.467   0.422   0.439   0.466   0.471   0.494   0.487   0.480   0.447   0.446   0.460   0.443   0.435   0.443   0.442   0.463   0.479   0.479   0.471   0.430   0.457   0.463   0.496   0.507   0.495   0.498   0.463   0.435   0.429   0.423   0.377   0.393   0.399   0.410   0.424   0.433   0.435   0.430   0.466   0.490   0.452   0.455   0.493   0.517
   103.30    0.444   0.440   0.478   0.504   0.519   0.456   0.456   0.436   0.422   0.406   0.409   0.437   0.407   0.388   0.376   0.386   0.391   0.392   0.408   0.413   0.421   0.480   0.476   0.466   0.474   0.505   0.499   0.533   0.532   0.486   0.482   0.427   0.435   0.446   0.443   0.433   0.429   0.461   0.471   0.467   0.435   0.462   0.413   0.446   0.437   0.462   0.430   0.425   0.446   0.452   0.436   0.435   0.431   0.441   0.433   0.413   0.448   0.444   0.475   0.446   0.433   0.432   0.446   0.433   0.411   0.437   0.410   0.373   0.406   0.416   0.471   0.461   0.439   0.449   0.462   0.434   0.433   0.453   0.449   0.403   0.443   0.458   0.470   0.473   0.462   0.433   0.409   0.437   0.421   0.433   0.432   0.423   0.421   0.449   0.478   0.470   0.467   0.429   0.463   0.457   0.469   0.474   0.403   0.440   0.428   0.433   0.431   0.420   0.387   0.379   0.391   0.367   0.381   0.431   0.446   0.448   0.463   0.476   0.452   0.448   0.471   0.444   0.438   0.482   0.518   0.510   0.480   0.476   0.514   0.505   0.497   0.507   0.509   0.486   0.508   0.507   0.512   0.521   0.494   0.543   0.514   0.508   0.547   0.518   0.505   0.522   0.527   0.517   0.474   0.478   0.459   0.449   0.461   0.496   0.504   0.468   0.505   0.510   0.492   0.456   0.458   0.414   0.438   0.446   0.454   0.474   0.474   0.476   0.458   0.466   0.437   0.460   0.488   0.473   0.479   0.463   0.445   0.400   0.402   0.393   0.406   0.410   0.425   0.440   0.427   0.425   0.417   0.437   0.463   0.462   0.462   0.460   0.479
    94.00    0.454   0.477   0.463   0.463   0.470   0.465   0.461   0.445   0.449   0.426   0.409   0.414   0.412   0.399   0.369   0.370   0.402   0.388   0.367   0.370   0.396   0.452   0.476   0.474   0.457   0.469   0.484   0.522   0.548   0.512   0.472   0.439   0.444   0.430   0.418   0.404   0.422   0.436   0.456   0.447   0.437   0.451   0.476   0.464   0.463   0.449   0.424   0.424   0.409   0.445   0.445   0.453   0.423   0.447   0.453   0.450   0.443   0.423   0.435   0.434   0.423   0.427   0.416   0.446   0.427   0.397   0.418   0.392   0.445   0.477   0.489   0.468   0.453   0.468   0.448   0.438   0.427   0.447   0.476   0.436   0.445   0.481   0.501   0.460   0.468   0.453   0.416   0.438   0.431   0.404   0.413   0.429   0.410   0.420   0.463   0.458   0.475   0.453   0.447   0.468   0.494   0.467   0.447   0.452   0.442   0.393   0.415   0.406   0.413   0.399   0.393   0.387   0.428   0.457   0.450   0.453   0.442   0.451   0.451   0.473   0.476   0.491   0.464   0.496   0.530   0.497   0.503   0.453   0.466   0.465   0.485   0.488   0.484   0.493   0.475   0.487   0.488   0.521   0.532   0.541   0.489   0.538   0.521   0.551   0.512   0.521   0.517   0.511   0.521   0.466   0.473   0.457   0.492   0.482   0.478   0.472   0.457   0.481   0.475   0.439   0.413   0.422   0.447   0.416   0.426   0.470   0.468   0.487   0.442   0.459   0.458   0.463   0.438   0.466   0.471   0.443   0.432   0.432   0.407   0.403   0.365   0.398   0.382   0.411   0.389   0.390   0.405   0.434   0.456   0.449   0.470   0.464   0.472
    84.70    0.449   0.463   0.457   0.475   0.492   0.494   0.474   0.441   0.422   0.446   0.435   0.401   0.405   0.369   0.369   0.384   0.380   0.381   0.403   0.412   0.452   0.464   0.481   0.501   0.486   0.503   0.482   0.515   0.531   0.523   0.464   0.461   0.442   0.452   0.444   0.417   0.423   0.406   0.449   0.451   0.432   0.444   0.444   0.466   0.436   0.415   0.423   0.457   0.463   0.436   0.474   0.467   0.466   0.449   0.465   0.470   0.420   0.420   0.413   0.406   0.410   0.388   0.410   0.429   0.446   0.422   0.408   0.410   0.436   0.461   0.487   0.472   0.504   0.443   0.413   0.411   0.412   0.460   0.470   0.456   0.435   0.455   0.469   0.448   0.450   0.461   0.458   0.445   0.410   0.382   0.381   0.420   0.399   0.441   0.450   0.466   0.477   0.471   0.459   0.478   0.476   0.476   0.422   0.438   0.422   0.424   0.402   0.413   0.425   0.443   0.410   0.421   0.437   0.441   0.424   0.407   0.419   0.417   0.437   0.450   0.469   0.502   0.475   0.490   0.544   0.526   0.501   0.475   0.440   0.484   0.462   0.461   0.458   0.494   0.479   0.486   0.495   0.484   0.518   0.517   0.511   0.535   0.504   0.538   0.510   0.548   0.518   0.509   0.481   0.473   0.462   0.470   0.514   0.527   0.507   0.492   0.464   0.481   0.490   0.429   0.400   0.434   0.428   0.414   0.459   0.467   0.437   0.451   0.466   0.463   0.458   0.462   0.455   0.434   0.442   0.437   0.446   0.454   0.441   0.409   0.425   0.409   0.405   0.417   0.419   0.426   0.418   0.431   0.440   0.445   0.437   0.451   0.448
    75.40    0.435   0.443   0.487   0.491   0.481   0.489   0.473   0.438   0.451   0.483   0.448   0.407   0.438   0.402   0.383   0.364   0.365   0.375   0.415   0.412   0.459   0.478   0.483   0.490   0.468   0.503   0.509   0.518   0.517   0.478   0.439   0.447   0.447   0.455   0.446   0.410   0.430   0.411   0.436   0.410   0.423   0.422   0.463   0.440   0.416   0.428   0.442   0.437   0.441   0.463   0.466   0.460   0.453   0.429   0.463   0.465   0.426   0.421   0.386   0.402   0.387   0.397   0.429   0.447   0.456   0.431   0.414   0.421   0.457   0.480   0.449   0.470   0.490   0.459   0.430   0.424   0.463   0.451   0.440   0.451   0.461   0.433   0.471   0.447   0.427   0.428   0.426   0.421   0.398   0.374   0.373   0.392   0.390   0.425   0.421   0.424   0.464   0.459   0.450   0.455   0.438   0.472   0.446   0.454   0.434   0.410   0.429   0.450   0.466   0.439   0.433   0.413   0.427   0.411   0.398   0.413   0.430   0.417   0.436   0.467   0.454   0.495   0.500   0.469   0.500   0.491   0.508   0.485   0.486   0.470   0.483   0.458   0.464   0.479   0.483   0.523   0.467   0.502   0.503   0.507   0.518   0.525   0.517   0.529   0.539   0.537   0.499   0.487   0.494   0.469   0.471   0.482   0.539   0.516   0.529   0.480   0.455   0.458   0.455   0.399   0.377   0.386   0.431   0.472   0.487   0.441   0.452   0.445   0.459   0.447   0.427   0.410   0.400   0.429   0.426   0.439   0.421   0.432   0.429   0.409   0.422   0.456   0.431   0.430   0.478   0.459   0.436   0.445   0.453   0.439   0.428   0.452   0.456
    66.10    0.472   0.449   0.456   0.450   0.451   0.491   0.471   0.462   0.452   0.443   0.461   0.458   0.414   0.380   0.390   0.402   0.404   0.399   0.409   0.470   0.476   0.480   0.488   0.498   0.496   0.494   0.504   0.514   0.517   0.469   0.419   0.457   0.455   0.443   0.421   0.421   0.406   0.412   0.402   0.416   0.428   0.448   0.466   0.459   0.444   0.466   0.426   0.469   0.440   0.451   0.458   0.449   0.455   0.459   0.466   0.433   0.455   0.406   0.417   0.412   0.401   0.401   0.462   0.435   0.473   0.456   0.432   0.428   0.448   0.468   0.470   0.449   0.479   0.446   0.441   0.442   0.459   0.449   0.450   0.458   0.456   0.469   0.465   0.434   0.438   0.425   0.422   0.412   0.415   0.385   0.397   0.416   0.413   0.442   0.448   0.437   0.438   0.449   0.456   0.441   0.447   0.434   0.435   0.428   0.432   0.417   0.457   0.459   0.474   0.472   0.449   0.401   0.392   0.389   0.404   0.400   0.427   0.433   0.491   0.477   0.484   0.498   0.500   0.487   0.487   0.500   0.485   0.464   0.460   0.482   0.498   0.490   0.484   0.490   0.494   0.500   0.487   0.486   0.518   0.521   0.529   0.540   0.543   0.534   0.506   0.515   0.508   0.502   0.475   0.480   0.482   0.469   0.530   0.511   0.507   0.489   0.441   0.430   0.413   0.390   0.364   0.410   0.418   0.471   0.467   0.451   0.449   0.450   0.465   0.429   0.410   0.398   0.410   0.467   0.456   0.473   0.444   0.436   0.463   0.429   0.457   0.475   0.455   0.435   0.457   0.444   0.424   0.422   0.426   0.432   0.437   0.392   0.433
    56.80    0.464   0.467   0.443   0.461   0.504   0.498   0.496   0.503   0.493   0.469   0.482   0.462   0.450   0.447   0.428   0.436   0.415   0.429   0.461   0.497   0.499   0.524   0.509   0.530   0.538   0.533   0.505   0.493   0.480   0.488   0.442   0.439   0.421   0.411   0.417   0.400   0.390   0.414   0.387   0.454   0.435   0.423   0.466   0.486   0.429   0.447   0.444   0.476   0.451   0.463   0.456   0.436   0.415   0.429   0.469   0.456   0.446   0.407   0.413   0.387   0.413   0.432   0.443   0.455   0.488   0.454   0.465   0.469   0.440   0.442   0.492   0.517   0.488   0.453   0.468   0.455   0.475   0.501   0.491   0.483   0.487   0.463   0.476   0.454   0.418   0.450   0.405   0.438   0.430   0.411   0.407   0.409   0.405   0.415   0.436   0.430   0.451   0.428   0.457   0.471   0.473   0.453   0.417   0.433   0.424   0.422   0.451   0.433   0.479   0.469   0.439   0.426   0.423   0.401   0.402   0.420   0.424   0.439   0.504   0.473   0.490   0.525   0.527   0.514   0.490   0.476   0.473   0.464   0.474   0.484   0.509   0.487   0.455   0.488   0.479   0.470   0.506   0.479   0.513   0.484   0.480   0.494   0.498   0.512   0.504   0.519   0.509   0.496   0.492   0.477   0.480   0.474   0.477   0.501   0.479   0.492   0.461   0.416   0.403   0.417   0.412   0.413   0.415   0.439   0.498   0.488   0.456   0.451   0.466   0.423   0.410   0.404   0.445   0.451   0.482   0.488   0.441   0.458   0.452   0.440   0.452   0.483   0.483   0.477   0.466   0.459   0.425   0.452   0.447   0.471   0.450   0.439   0.413
    47.50    0.472   0.459   0.429   0.450   0.495   0.539   0.518   0.516   0.481   0.483   0.478   0.459   0.451   0.452   0.478   0.440   0.447   0.480   0.459   0.475   0.498   0.511   0.533   0.503   0.520   0.519   0.505   0.481   0.462   0.478   0.467   0.463   0.465   0.410   0.395   0.400   0.377   0.394   0.407   0.428   0.430   0.426   0.432   0.470   0.444   0.465   0.487   0.471   0.471   0.468   0.451   0.422   0.399   0.397   0.408   0.444   0.439   0.442   0.416   0.390   0.389   0.415   0.453   0.469   0.483   0.490   0.478   0.459   0.444   0.487   0.467   0.490   0.466   0.441   0.444   0.481   0.465   0.508   0.497   0.471   0.486   0.464   0.465   0.425   0.429   0.419   0.397   0.421   0.453   0.449   0.421   0.398   0.420   0.453   0.420   0.404   0.417   0.404   0.426   0.450   0.488   0.461   0.444   0.433   0.440   0.443   0.435   0.441   0.463   0.487   0.437   0.458   0.421   0.418   0.424   0.415   0.418   0.463   0.471   0.484   0.493   0.525   0.533   0.541   0.486   0.458   0.458   0.442   0.452   0.469   0.485   0.478   0.447   0.477   0.470   0.431   0.471   0.467   0.483   0.472   0.490   0.487   0.503   0.505   0.530   0.521   0.475   0.495   0.511   0.506   0.484   0.481   0.481   0.508   0.491   0.491   0.459   0.449   0.454   0.443   0.438   0.429   0.421   0.416   0.470   0.456   0.440   0.463   0.448   0.420   0.412   0.418   0.448   0.457   0.493   0.455   0.473   0.454   0.459   0.459   0.449   0.464   0.476   0.451   0.455   0.454   0.441   0.450   0.460   0.450   0.452   0.454   0.469
    38.20    0.465   0.468   0.474   0.484   0.506   0.514   0.500   0.496   0.516   0.487   0.462   0.474   0.475   0.469   0.496   0.458   0.470   0.505   0.503   0.498   0.507   0.502   0.477   0.487   0.509   0.534   0.510   0.497   0.481   0.475   0.476   0.477   0.481   0.445   0.413   0.398   0.395   0.384   0.384   0.389   0.424   0.456   0.434   0.464   0.502   0.465   0.461   0.481   0.481   0.496   0.446   0.412   0.377   0.379   0.387   0.418   0.439   0.454   0.430   0.405   0.409   0.414   0.415   0.452   0.462   0.475   0.466   0.453   0.476   0.510   0.469   0.467   0.440   0.430   0.421   0.429   0.476   0.505   0.484   0.458   0.477   0.466   0.439   0.452   0.406   0.425   0.416   0.428   0.430   0.436   0.411   0.409   0.402   0.451   0.442   0.418   0.387   0.394   0.445   0.451   0.457   0.452   0.449   0.426   0.408   0.426   0.447   0.423   0.456   0.461   0.455   0.457   0.445   0.425   0.411   0.422   0.431   0.449   0.465   0.463   0.485   0.504   0.498   0.520   0.505   0.466   0.448   0.437   0.433   0.445   0.455   0.456   0.452   0.433   0.448   0.422   0.420   0.455   0.459   0.446   0.480   0.487   0.503   0.512   0.487   0.483   0.455   0.475   0.459   0.464   0.454   0.462   0.491   0.477   0.487   0.452   0.431   0.452   0.460   0.438   0.426   0.411   0.405   0.414   0.427   0.430   0.435   0.433   0.423   0.446   0.442   0.423   0.440   0.427   0.441   0.443   0.421   0.442   0.439   0.452   0.408   0.437   0.446   0.462   0.457   0.426   0.430   0.459   0.441   0.431   0.436   0.447   0.440
    28.90    0.463   0.482   0.480   0.474   0.503   0.503   0.489   0.485   0.496   0.477   0.487   0.477   0.448   0.493   0.495   0.487   0.471   0.485   0.476   0.461   0.481   0.483   0.470   0.455   0.477   0.496   0.501   0.534   0.509   0.494   0.487   0.490   0.495   0.432   0.417   0.411   0.404   0.378   0.404   0.413   0.411   0.420   0.463   0.466   0.468   0.454   0.501   0.473   0.491   0.485   0.469   0.428   0.406   0.376   0.410   0.450   0.453   0.447   0.443   0.427   0.414   0.406   0.398   0.416   0.442   0.432   0.466   0.487   0.480   0.515   0.516   0.474   0.470   0.436   0.441   0.410   0.475   0.489   0.476   0.469   0.464   0.449   0.421   0.465   0.440   0.432   0.431   0.418   0.429   0.435   0.417   0.440   0.431   0.457   0.438   0.445   0.412   0.419   0.455   0.458   0.440   0.456   0.468   0.441   0.415   0.431   0.408   0.431   0.452   0.453   0.440   0.472   0.465   0.428   0.409   0.458   0.425   0.419   0.428   0.466   0.465   0.489   0.509   0.543   0.514   0.505   0.425   0.426   0.435   0.454   0.430   0.428   0.414   0.404   0.399   0.431   0.415   0.429   0.449   0.463   0.477   0.502   0.487   0.510   0.469   0.484   0.464   0.477   0.446   0.444   0.456   0.496   0.455   0.451   0.460   0.446   0.396   0.405   0.441   0.454   0.432   0.405   0.398   0.405   0.447   0.404   0.421   0.438   0.433   0.422   0.427   0.400   0.408   0.451   0.412   0.418   0.404   0.407   0.402   0.435   0.414   0.429   0.442   0.465   0.440   0.411   0.382   0.419   0.439   0.420   0.448   0.447   0.455
    19.60    0.466   0.480   0.518   0.500   0.487   0.488   0.479   0.461   0.456   0.487   0.510   0.501   0.459   0.490   0.496   0.462   0.455   0.457   0.461   0.436   0.435   0.449   0.447   0.447   0.482   0.513   0.498   0.479   0.495   0.495   0.481   0.481   0.444   0.443   0.420   0.416   0.388   0.393   0.408   0.382   0.409   0.424   0.454   0.452   0.482   0.469   0.504   0.511   0.510   0.486   0.450   0.449   0.421   0.435   0.406   0.442   0.420   0.450   0.434   0.441   0.410   0.405   0.410   0.410   0.424   0.439   0.485   0.506   0.498   0.504   0.498   0.475   0.439   0.436   0.433   0.420   0.445   0.443   0.452   0.443   0.463   0.466   0.435   0.431   0.421   0.413   0.413   0.404   0.429   0.431   0.422   0.458   0.469   0.445   0.423   0.434   0.412   0.404   0.469   0.454   0.477   0.474   0.469   0.459   0.433   0.446   0.429   0.374   0.418   0.472   0.464   0.505   0.504   0.488   0.467   0.455   0.447   0.449   0.443   0.459   0.458   0.478   0.494   0.524   0.505   0.495   0.453   0.414   0.432   0.428   0.447   0.405   0.398   0.378   0.382   0.402   0.427   0.456   0.451   0.468   0.480   0.509   0.472   0.492   0.492   0.478   0.481   0.462   0.453   0.450   0.512   0.518   0.496   0.461   0.471   0.454   0.412   0.399   0.422   0.399   0.430   0.402   0.412   0.389   0.433   0.405   0.424   0.420   0.439   0.424   0.418   0.408   0.423   0.446   0.405   0.403   0.422   0.423   0.398   0.431   0.420   0.432   0.444   0.454   0.447   0.431   0.453   0.435   0.408   0.422   0.427   0.453   0.442
    10.30    0.470   0.442   0.479   0.473   0.460   0.463   0.486   0.468   0.490   0.488   0.470   0.442   0.438   0.493   0.524   0.500   0.461   0.483   0.453   0.437   0.431   0.410   0.437   0.460   0.463   0.486   0.469   0.462   0.473   0.487   0.461   0.452   0.474   0.440   0.425   0.419   0.430   0.426   0.434   0.403   0.407   0.443   0.437   0.441   0.463   0.455   0.471   0.467   0.474   0.472   0.470   0.474   0.434   0.426   0.462   0.432   0.454   0.452   0.447   0.453   0.390   0.406   0.411   0.398   0.418   0.455   0.490   0.510   0.507   0.481   0.479   0.461   0.474   0.453   0.451   0.440   0.453   0.428   0.434   0.444   0.472   0.433   0.400   0.411   0.408   0.393   0.419   0.430   0.422   0.408   0.422   0.455   0.467   0.449   0.429   0.426   0.430   0.422   0.488   0.456   0.468   0.441   0.469   0.451   0.398   0.413   0.416   0.410   0.430   0.455   0.494   0.503   0.493   0.500   0.482   0.466   0.457   0.452   0.458   0.427   0.462   0.463   0.472   0.503   0.515   0.468   0.476   0.443   0.410   0.419   0.409   0.420   0.412   0.428   0.398   0.397   0.436   0.450   0.429   0.430   0.470   0.468   0.495   0.474   0.468   0.489   0.471   0.445   0.468   0.470   0.528   0.490   0.534   0.490   0.510   0.476   0.419   0.392   0.398   0.393   0.411   0.429   0.409   0.446   0.443   0.427   0.445   0.451   0.440   0.451   0.428   0.434   0.467   0.431   0.435   0.409   0.407   0.403   0.406   0.410   0.436   0.424   0.457   0.469   0.465   0.429   0.455   0.451   0.434   0.424   0.447   0.448   0.452
     1.00    0.477   0.461   0.467   0.462   0.462   0.465   0.474   0.492   0.489   0.457   0.464   0.471   0.458   0.473   0.500   0.495   0.508   0.507   0.446   0.423   0.434   0.415   0.436   0.442   0.476   0.456   0.472   0.453   0.458   0.480   0.453   0.478   0.482   0.430   0.430   0.424   0.454   0.448   0.448   0.435   0.420   0.428   0.455   0.424   0.416   0.417   0.472   0.466   0.457   0.454   0.436   0.435   0.421   0.439   0.451   0.453   0.454   0.429   0.437   0.434   0.393   0.408   0.435   0.423   0.449   0.458   0.468   0.485   0.479   0.483   0.445   0.452   0.466   0.461   0.443   0.428   0.424   0.418   0.412   0.431   0.442   0.422   0.410   0.402   0.400   0.373   0.396   0.424   0.435   0.435   0.427   0.459   0.466   0.480   0.437   0.420   0.443   0.422   0.449   0.461   0.419   0.427   0.437   0.433   0.412   0.373   0.400   0.411   0.437   0.431   0.474   0.509   0.534   0.491   0.489   0.444   0.450   0.429   0.437   0.398   0.425   0.457   0.436   0.468   0.486   0.455   0.473   0.445   0.426   0.402   0.431   0.414   0.431   0.424   0.398   0.392   0.411   0.448   0.430   0.448   0.423   0.448   0.473   0.499   0.471   0.497   0.483   0.489   0.481   0.485   0.502   0.536   0.534   0.500   0.490   0.471   0.420   0.403   0.408   0.392   0.416   0.421   0.428   0.435   0.453   0.449   0.447   0.439   0.439   0.456   0.441   0.430   0.461   0.466   0.447   0.456   0.421   0.397   0.390   0.400   0.417   0.449   0.460   0.457   0.443   0.408   0.424   0.425   0.438   0.441   0.418   0.457   0.467

   Height   Standard deviation at grid points for the v component:
   354.40    0.401   0.421   0.438   0.414   0.394   0.383   0.376   0.395   0.391   0.377   0.383   0.388   0.414   0.421   0.432   0.453   0.437   0.422   0.408   0.436   0.421   0.406   0.411   0.414   0.404   0.402   0.413   0.377   0.378   0.381   0.357   0.352   0.364   0.353   0.383   0.390   0.406   0.428   0.407   0.407   0.400   0.397   0.421   0.396   0.379   0.387   0.389   0.378   0.385   0.391   0.401   0.381   0.382   0.390   0.386   0.395   0.381   0.383   0.388   0.398   0.392   0.391   0.395   0.406   0.365   0.366   0.386   0.388   0.395   0.377   0.389   0.380   0.377   0.362   0.347   0.355   0.357   0.377   0.366   0.348   0.360   0.369   0.400   0.404   0.401   0.408   0.407   0.388   0.384   0.374   0.349   0.358   0.360   0.349   0.357   0.379   0.374   0.366   0.366   0.339   0.345   0.367   0.365   0.382   0.390   0.388   0.364   0.353   0.360   0.356   0.362   0.367   0.354   0.360   0.364   0.354   0.354   0.371   0.365   0.373   0.386   0.391   0.384   0.360   0.355   0.378   0.371   0.358   0.374   0.372   0.384   0.390   0.395   0.419   0.413   0.422   0.404   0.404   0.381   0.412   0.410   0.397   0.414   0.404   0.397   0.388   0.388   0.376   0.375   0.375   0.392   0.360   0.356   0.373   0.367   0.389   0.397   0.406   0.386   0.374   0.380   0.397   0.400   0.401   0.400   0.393   0.403   0.390   0.416   0.396   0.410   0.391   0.382   0.377   0.401   0.424   0.424   0.408   0.410   0.404   0.406   0.398   0.395   0.400   0.392   0.396   0.403   0.383   0.381   0.383   0.371   0.370   0.365
   345.10    0.428   0.440   0.440   0.419   0.395   0.372   0.389   0.390   0.403   0.390   0.394   0.409   0.409   0.423   0.438   0.443   0.431   0.424   0.406   0.411   0.424   0.413   0.408   0.398   0.400   0.395   0.381   0.373   0.369   0.361   0.365   0.345   0.365   0.372   0.390   0.405   0.408   0.415   0.418   0.378   0.392   0.416   0.431   0.408   0.395   0.382   0.374   0.387   0.378   0.386   0.378   0.357   0.345   0.365   0.376   0.398   0.377   0.389   0.387   0.397   0.391   0.388   0.384   0.379   0.377   0.369   0.370   0.382   0.377   0.395   0.376   0.382   0.364   0.355   0.335   0.352   0.346   0.363   0.375   0.366   0.389   0.388   0.401   0.419   0.417   0.402   0.408   0.359   0.359   0.352   0.358   0.374   0.376   0.361   0.355   0.371   0.382   0.365   0.348   0.360   0.348   0.372   0.388   0.397   0.407   0.411   0.378   0.395   0.407   0.357   0.368   0.366   0.348   0.367   0.359   0.341   0.355   0.357   0.361   0.363   0.380   0.375   0.384   0.380   0.365   0.366   0.376   0.365   0.377   0.384   0.375   0.398   0.387   0.404   0.421   0.392   0.388   0.380   0.401   0.424   0.442   0.443   0.443   0.419   0.410   0.387   0.375   0.382   0.360   0.360   0.363   0.349   0.358   0.371   0.371   0.385   0.402   0.421   0.427   0.406   0.404   0.378   0.370   0.378   0.383   0.380   0.403   0.399   0.387   0.385   0.384   0.397   0.390   0.367   0.380   0.388   0.403   0.408   0.426   0.395   0.396   0.379   0.360   0.382   0.394   0.408   0.404   0.394   0.396   0.390   0.394   0.365   0.372
   335.80    0.429   0.445   0.445   0.454   0.423   0.413   0.397   0.406   0.410   0.403   0.410   0.407   0.430   0.451   0.449   0.458   0.426   0.396   0.382   0.392   0.403   0.399   0.403   0.405   0.402   0.383   0.378   0.354   0.352   0.355   0.376   0.361   0.382   0.385   0.389   0.404   0.399   0.403   0.402   0.390   0.387   0.404   0.413   0.397   0.377   0.365   0.380   0.388   0.368   0.376   0.369   0.358   0.341   0.341   0.352   0.361   0.384   0.386   0.373   0.394   0.405   0.375   0.373   0.361   0.371   0.365   0.365   0.363   0.370   0.373   0.371   0.382   0.360   0.339   0.344   0.353   0.353   0.372   0.363   0.355   0.387   0.426   0.414   0.399   0.397   0.412   0.404   0.396   0.363   0.364   0.355   0.383   0.375   0.384   0.379   0.385   0.384   0.383   0.380   0.359   0.343   0.359   0.383   0.393   0.403   0.378   0.381   0.409   0.371   0.374   0.354   0.355   0.335   0.343   0.343   0.374   0.363   0.369   0.354   0.360   0.337   0.366   0.379   0.384   0.360   0.342   0.345   0.356   0.372   0.380   0.379   0.397   0.397   0.395   0.396   0.395   0.382   0.391   0.418   0.433   0.442   0.452   0.442   0.417   0.397   0.405   0.388   0.378   0.366   0.363   0.362   0.367   0.355   0.366   0.380   0.394   0.396   0.412   0.430   0.415   0.412   0.380   0.377   0.377   0.385   0.384   0.371   0.362   0.373   0.374   0.369   0.371   0.375   0.379   0.392   0.404   0.421   0.403   0.421   0.400   0.404   0.388   0.374   0.365   0.394   0.392   0.390   0.421   0.406   0.391   0.409   0.383   0.375
   326.50    0.412   0.441   0.453   0.458   0.427   0.401   0.389   0.404   0.426   0.416   0.407   0.422   0.430   0.440   0.456   0.420   0.417   0.407   0.392   0.380   0.405   0.386   0.379   0.404   0.398   0.399   0.382   0.360   0.356   0.374   0.376   0.373   0.386   0.389   0.385   0.399   0.405   0.393   0.408   0.389   0.399   0.419   0.397   0.391   0.377   0.375   0.389   0.397   0.398   0.372   0.357   0.343   0.334   0.338   0.356   0.361   0.365   0.367   0.359   0.393   0.404   0.375   0.394   0.368   0.379   0.391   0.380   0.378   0.379   0.364   0.366   0.383   0.383   0.348   0.362   0.377   0.375   0.401   0.391   0.376   0.410   0.438   0.425   0.404   0.380   0.387   0.405   0.376   0.377   0.373   0.382   0.387   0.368   0.361   0.359   0.367   0.371   0.377   0.366   0.372   0.362   0.350   0.372   0.382   0.377   0.380   0.377   0.386   0.369   0.372   0.361   0.362   0.355   0.340   0.342   0.344   0.356   0.359   0.363   0.359   0.338   0.362   0.361   0.375   0.341   0.335   0.341   0.367   0.358   0.369   0.369   0.384   0.375   0.397   0.386   0.394   0.379   0.390   0.405   0.426   0.434   0.459   0.444   0.427   0.404   0.405   0.384   0.382   0.377   0.370   0.372   0.376   0.363   0.378   0.378   0.386   0.372   0.420   0.410   0.413   0.422   0.386   0.382   0.396   0.393   0.383   0.371   0.373   0.377   0.366   0.345   0.370   0.372   0.400   0.399   0.402   0.415   0.389   0.389   0.391   0.408   0.403   0.373   0.393   0.399   0.392   0.401   0.403   0.415   0.433   0.422   0.400   0.378
[...]
   103.30    0.232   0.234   0.237   0.231   0.240   0.240   0.239   0.233   0.228   0.236   0.228   0.233   0.237   0.238   0.231   0.233   0.229   0.227   0.225   0.222   0.230   0.238   0.243   0.238   0.230   0.233   0.238   0.233   0.227   0.228   0.229   0.235   0.232   0.225   0.225   0.229   0.235   0.236   0.239   0.239   0.235   0.238   0.240   0.235   0.238   0.242   0.236   0.238   0.234   0.240   0.239   0.228   0.223   0.228   0.241   0.246   0.246   0.248   0.243   0.238   0.239   0.230   0.237   0.235   0.237   0.239   0.248   0.248   0.241   0.241   0.234   0.232   0.229   0.230   0.233   0.233   0.231   0.236   0.232   0.229   0.239   0.240   0.231   0.237   0.243   0.242   0.247   0.246   0.248   0.249   0.242   0.242   0.246   0.244   0.245   0.246   0.240   0.240   0.237   0.229   0.233   0.232   0.242   0.235   0.242   0.245   0.248   0.259   0.258   0.255   0.253   0.245   0.242   0.237   0.234   0.239   0.232   0.227   0.232   0.236   0.234   0.230   0.238   0.239   0.248   0.233   0.238   0.227   0.224   0.224   0.226   0.237   0.242   0.235   0.232   0.229   0.232   0.231   0.239   0.237   0.239   0.233   0.232   0.235   0.231   0.232   0.237   0.234   0.234   0.237   0.235   0.241   0.247   0.242   0.246   0.241   0.240   0.243   0.254   0.256   0.250   0.251   0.242   0.241   0.239   0.240   0.231   0.228   0.237   0.233   0.238   0.234   0.239   0.233   0.233   0.242   0.238   0.241   0.235   0.233   0.226   0.233   0.232   0.230   0.232   0.239   0.247   0.236   0.236   0.238   0.231   0.234   0.240
    94.00    0.232   0.230   0.232   0.236   0.239   0.236   0.235   0.236   0.235   0.244   0.236   0.237   0.242   0.241   0.235   0.235   0.239   0.241   0.227   0.220   0.226   0.232   0.233   0.239   0.232   0.230   0.236   0.232   0.229   0.231   0.229   0.233   0.227   0.233   0.224   0.224   0.228   0.239   0.238   0.234   0.236   0.235   0.232   0.240   0.236   0.231   0.235   0.231   0.241   0.239   0.229   0.222   0.218   0.224   0.234   0.239   0.240   0.242   0.243   0.233   0.242   0.241   0.237   0.244   0.239   0.243   0.244   0.246   0.245   0.238   0.239   0.228   0.227   0.231   0.230   0.234   0.230   0.228   0.227   0.231   0.236   0.243   0.234   0.232   0.241   0.236   0.250   0.255   0.257   0.248   0.242   0.240   0.249   0.241   0.237   0.241   0.236   0.237   0.240   0.232   0.223   0.233   0.235   0.235   0.239   0.244   0.243   0.247   0.257   0.256   0.251   0.248   0.245   0.238   0.238   0.231   0.232   0.233   0.239   0.245   0.231   0.226   0.230   0.234   0.233   0.237   0.232   0.231   0.234   0.231   0.227   0.232   0.237   0.236   0.226   0.236   0.238   0.234   0.237   0.233   0.241   0.228   0.233   0.226   0.231   0.231   0.236   0.237   0.240   0.245   0.248   0.244   0.246   0.252   0.252   0.245   0.246   0.253   0.250   0.243   0.252   0.247   0.254   0.240   0.236   0.236   0.230   0.232   0.237   0.237   0.241   0.246   0.238   0.234   0.233   0.239   0.235   0.228   0.229   0.230   0.226   0.230   0.226   0.232   0.240   0.250   0.246   0.229   0.227   0.228   0.235   0.231   0.239
    84.70    0.238   0.233   0.232   0.241   0.246   0.230   0.239   0.242   0.247   0.240   0.244   0.239   0.244   0.244   0.235   0.236   0.236   0.240   0.234   0.232   0.232   0.230   0.235   0.234   0.233   0.219   0.226   0.229   0.231   0.222   0.231   0.227   0.223   0.223   0.222   0.223   0.226   0.240   0.248   0.239   0.241   0.237   0.230   0.226   0.231   0.227   0.227   0.229   0.229   0.228   0.230   0.225   0.227   0.225   0.232   0.236   0.236   0.234   0.236   0.242   0.232   0.235   0.232   0.233   0.241   0.246   0.242   0.242   0.248   0.236   0.239   0.231   0.229   0.234   0.232   0.232   0.235   0.240   0.240   0.237   0.233   0.231   0.237   0.242   0.234   0.236   0.246   0.251   0.247   0.251   0.244   0.248   0.248   0.246   0.233   0.234   0.231   0.230   0.235   0.236   0.227   0.229   0.233   0.234   0.235   0.244   0.248   0.245   0.245   0.245   0.254   0.254   0.247   0.245   0.246   0.239   0.237   0.236   0.234   0.241   0.240   0.224   0.226   0.230   0.229   0.233   0.238   0.239   0.234   0.232   0.232   0.230   0.228   0.231   0.229   0.235   0.236   0.236   0.237   0.239   0.234   0.232   0.237   0.231   0.234   0.224   0.239   0.240   0.242   0.248   0.241   0.239   0.251   0.244   0.248   0.251   0.247   0.246   0.246   0.238   0.240   0.238   0.247   0.245   0.235   0.229   0.231   0.234   0.240   0.236   0.234   0.235   0.243   0.240   0.238   0.233   0.227   0.235   0.230   0.229   0.234   0.228   0.228   0.227   0.230   0.237   0.234   0.234   0.225   0.225   0.236   0.230   0.240
    75.40    0.235   0.229   0.235   0.237   0.243   0.235   0.237   0.242   0.246   0.244   0.246   0.240   0.240   0.241   0.235   0.236   0.237   0.239   0.235   0.233   0.236   0.226   0.228   0.235   0.231   0.229   0.238   0.237   0.232   0.229   0.231   0.234   0.225   0.219   0.218   0.228   0.230   0.242   0.235   0.243   0.242   0.241   0.235   0.234   0.233   0.229   0.221   0.228   0.227   0.234   0.234   0.233   0.233   0.228   0.229   0.235   0.238   0.231   0.232   0.239   0.231   0.231   0.227   0.231   0.242   0.241   0.243   0.241   0.242   0.241   0.238   0.239   0.236   0.236   0.233   0.232   0.241   0.246   0.238   0.237   0.241   0.240   0.243   0.241   0.234   0.242   0.242   0.253   0.248   0.252   0.251   0.249   0.241   0.232   0.234   0.230   0.237   0.234   0.232   0.234   0.227   0.235   0.238   0.229   0.230   0.243   0.250   0.237   0.244   0.242   0.252   0.249   0.246   0.247   0.245   0.238   0.239   0.238   0.244   0.236   0.234   0.232   0.237   0.235   0.235   0.239   0.235   0.240   0.237   0.245   0.229   0.224   0.227   0.233   0.232   0.233   0.236   0.230   0.240   0.234   0.241   0.231   0.235   0.231   0.233   0.227   0.240   0.246   0.243   0.236   0.249   0.247   0.250   0.246   0.237   0.245   0.248   0.243   0.240   0.236   0.243   0.237   0.233   0.235   0.235   0.242   0.233   0.233   0.238   0.230   0.235   0.238   0.244   0.237   0.238   0.235   0.229   0.237   0.238   0.236   0.240   0.236   0.231   0.231   0.239   0.240   0.234   0.233   0.231   0.231   0.235   0.231   0.236
    66.10    0.236   0.230   0.232   0.242   0.240   0.239   0.238   0.248   0.247   0.245   0.241   0.241   0.239   0.237   0.241   0.241   0.235   0.246   0.244   0.242   0.230   0.223   0.226   0.221   0.230   0.225   0.230   0.237   0.236   0.232   0.230   0.239   0.227   0.225   0.229   0.229   0.226   0.233   0.236   0.242   0.240   0.238   0.241   0.228   0.226   0.229   0.224   0.227   0.232   0.241   0.235   0.232   0.240   0.232   0.235   0.235   0.229   0.225   0.228   0.238   0.238   0.232   0.229   0.228   0.233   0.239   0.243   0.239   0.241   0.249   0.247   0.241   0.239   0.229   0.232   0.229   0.235   0.244   0.246   0.235   0.235   0.244   0.241   0.239   0.240   0.238   0.239   0.249   0.253   0.251   0.245   0.245   0.238   0.238   0.227   0.231   0.229   0.230   0.224   0.230   0.234   0.238   0.229   0.228   0.234   0.240   0.248   0.242   0.248   0.240   0.245   0.246   0.242   0.243   0.233   0.236   0.242   0.238   0.232   0.239   0.237   0.239   0.240   0.246   0.245   0.245   0.245   0.234   0.238   0.238   0.224   0.233   0.229   0.232   0.240   0.231   0.228   0.235   0.229   0.234   0.234   0.230   0.225   0.230   0.232   0.230   0.235   0.237   0.238   0.240   0.242   0.246   0.256   0.256   0.252   0.247   0.249   0.241   0.242   0.239   0.241   0.247   0.231   0.236   0.235   0.237   0.231   0.230   0.234   0.239   0.243   0.242   0.248   0.243   0.240   0.234   0.230   0.231   0.238   0.236   0.237   0.238   0.237   0.234   0.230   0.240   0.245   0.247   0.231   0.226   0.232   0.236   0.239
    56.80    0.240   0.233   0.237   0.236   0.242   0.246   0.247   0.244   0.248   0.249   0.241   0.242   0.234   0.239   0.239   0.241   0.244   0.244   0.239   0.232   0.230   0.224   0.235   0.223   0.223   0.236   0.236   0.235   0.236   0.228   0.230   0.232   0.224   0.230   0.229   0.230   0.229   0.239   0.233   0.236   0.231   0.235   0.232   0.227   0.226   0.233   0.233   0.234   0.232   0.232   0.234   0.236   0.238   0.234   0.233   0.234   0.231   0.230   0.232   0.232   0.235   0.229   0.232   0.231   0.232   0.238   0.235   0.243   0.247   0.243   0.236   0.236   0.234   0.231   0.236   0.235   0.243   0.242   0.236   0.240   0.243   0.237   0.234   0.238   0.244   0.243   0.244   0.246   0.249   0.251   0.247   0.237   0.235   0.238   0.228   0.240   0.231   0.227   0.225   0.226   0.233   0.227   0.225   0.226   0.236   0.239   0.245   0.244   0.242   0.240   0.246   0.246   0.236   0.236   0.232   0.235   0.242   0.235   0.229   0.237   0.247   0.247   0.251   0.240   0.247   0.246   0.252   0.236   0.240   0.232   0.231   0.239   0.242   0.243   0.243   0.238   0.230   0.236   0.235   0.233   0.237   0.235   0.227   0.231   0.232   0.229   0.234   0.240   0.240   0.248   0.243   0.243   0.252   0.253   0.252   0.243   0.239   0.243   0.235   0.235   0.234   0.247   0.232   0.237   0.234   0.242   0.241   0.234   0.238   0.240   0.242   0.241   0.241   0.243   0.243   0.239   0.240   0.233   0.233   0.243   0.238   0.247   0.245   0.237   0.233   0.242   0.252   0.246   0.242   0.233   0.242   0.239   0.242
    47.50    0.238   0.236   0.230   0.231   0.241   0.240   0.256   0.245   0.243   0.245   0.240   0.238   0.239   0.234   0.235   0.233   0.234   0.238   0.230   0.233   0.234   0.233   0.237   0.235   0.231   0.230   0.233   0.238   0.232   0.231   0.231   0.239   0.233   0.232   0.240   0.235   0.228   0.233   0.235   0.235   0.238   0.226   0.231   0.217   0.225   0.234   0.232   0.230   0.238   0.234   0.235   0.240   0.239   0.235   0.231   0.232   0.234   0.233   0.239   0.235   0.237   0.231   0.237   0.233   0.229   0.228   0.238   0.239   0.236   0.235   0.228   0.239   0.231   0.240   0.230   0.240   0.236   0.235   0.233   0.244   0.243   0.245   0.247   0.243   0.240   0.238   0.240   0.244   0.250   0.245   0.247   0.241   0.241   0.242   0.228   0.232   0.230   0.229   0.226   0.230   0.228   0.232   0.225   0.231   0.236   0.242   0.241   0.240   0.236   0.242   0.240   0.240   0.241   0.244   0.237   0.227   0.239   0.236   0.235   0.238   0.241   0.243   0.246   0.248   0.234   0.242   0.242   0.242   0.242   0.237   0.243   0.241   0.238   0.238   0.243   0.244   0.233   0.238   0.239   0.237   0.237   0.239   0.244   0.238   0.232   0.236   0.241   0.245   0.248   0.242   0.238   0.234   0.245   0.257   0.259   0.257   0.249   0.244   0.241   0.241   0.241   0.248   0.236   0.237   0.238   0.235   0.243   0.247   0.241   0.239   0.244   0.244   0.242   0.235   0.247   0.241   0.243   0.241   0.233   0.243   0.238   0.248   0.247   0.236   0.231   0.250   0.248   0.246   0.241   0.240   0.242   0.239   0.245
    38.20    0.241   0.234   0.237   0.238   0.237   0.236   0.240   0.239   0.245   0.238   0.239   0.239   0.241   0.234   0.232   0.228   0.224   0.237   0.239   0.230   0.235   0.236   0.235   0.237   0.237   0.237   0.240   0.243   0.246   0.241   0.241   0.234   0.237   0.232   0.230   0.232   0.238   0.241   0.237   0.234   0.237   0.222   0.220   0.216   0.227   0.232   0.232   0.229   0.234   0.233   0.233   0.241   0.242   0.238   0.235   0.233   0.227   0.230   0.241   0.246   0.243   0.232   0.225   0.229   0.231   0.233   0.245   0.240   0.248   0.234   0.224   0.227   0.228   0.235   0.240   0.236   0.235   0.231   0.235   0.243   0.240   0.243   0.244   0.241   0.234   0.239   0.247   0.242   0.238   0.247   0.235   0.239   0.238   0.243   0.243   0.236   0.232   0.225   0.224   0.228   0.234   0.233   0.228   0.226   0.236   0.238   0.241   0.238   0.235   0.231   0.234   0.244   0.247   0.233   0.232   0.218   0.228   0.226   0.239   0.237   0.240   0.249   0.243   0.247   0.251   0.247   0.243   0.241   0.245   0.242   0.244   0.249   0.245   0.237   0.237   0.247   0.240   0.243   0.237   0.240   0.236   0.237   0.234   0.232   0.229   0.237   0.251   0.242   0.248   0.249   0.239   0.236   0.241   0.241   0.243   0.250   0.245   0.235   0.238   0.229   0.240   0.244   0.232   0.238   0.249   0.241   0.237   0.246   0.241   0.243   0.242   0.245   0.240   0.244   0.241   0.241   0.243   0.239   0.246   0.239   0.233   0.237   0.240   0.236   0.242   0.242   0.250   0.246   0.237   0.231   0.234   0.234   0.239
    28.90    0.238   0.231   0.233   0.234   0.247   0.247   0.245   0.245   0.244   0.249   0.235   0.236   0.235   0.236   0.230   0.229   0.229   0.233   0.236   0.234   0.227   0.239   0.234   0.233   0.226   0.236   0.237   0.238   0.241   0.245   0.240   0.238   0.238   0.224   0.227   0.224   0.236   0.244   0.232   0.237   0.233   0.223   0.221   0.221   0.226   0.231   0.223   0.227   0.239   0.239   0.241   0.237   0.245   0.239   0.233   0.224   0.219   0.231   0.244   0.244   0.242   0.231   0.234   0.238   0.231   0.236   0.244   0.250   0.238   0.238   0.226   0.222   0.221   0.235   0.233   0.236   0.238   0.234   0.239   0.237   0.250   0.242   0.247   0.250   0.254   0.254   0.249   0.245   0.240   0.233   0.239   0.237   0.236   0.236   0.240   0.238   0.232   0.221   0.224   0.230   0.231   0.230   0.229   0.235   0.237   0.231   0.235   0.236   0.237   0.237   0.239   0.241   0.240   0.230   0.238   0.231   0.230   0.241   0.236   0.233   0.246   0.242   0.246   0.248   0.251   0.247   0.249   0.254   0.237   0.248   0.243   0.246   0.243   0.235   0.236   0.237   0.241   0.251   0.252   0.249   0.242   0.239   0.230   0.222   0.229   0.235   0.240   0.236   0.247   0.243   0.237   0.236   0.241   0.245   0.236   0.245   0.238   0.240   0.244   0.244   0.243   0.241   0.231   0.240   0.243   0.241   0.228   0.238   0.237   0.242   0.244   0.234   0.234   0.235   0.235   0.243   0.240   0.237   0.242   0.243   0.230   0.233   0.240   0.241   0.242   0.243   0.248   0.240   0.233   0.237   0.232   0.240   0.241
    19.60    0.241   0.234   0.238   0.234   0.241   0.245   0.239   0.236   0.246   0.239   0.239   0.242   0.239   0.237   0.229   0.232   0.228   0.231   0.238   0.242   0.231   0.228   0.233   0.239   0.232   0.231   0.237   0.241   0.237   0.239   0.238   0.237   0.228   0.227   0.234   0.232   0.234   0.230   0.224   0.229   0.224   0.222   0.223   0.221   0.224   0.225   0.229   0.233   0.233   0.237   0.235   0.240   0.241   0.246   0.240   0.232   0.228   0.226   0.236   0.242   0.236   0.230   0.225   0.240   0.238   0.241   0.237   0.242   0.232   0.230   0.234   0.233   0.230   0.237   0.237   0.235   0.244   0.230   0.232   0.239   0.242   0.242   0.248   0.249   0.254   0.258   0.242   0.248   0.240   0.229   0.225   0.225   0.228   0.237   0.228   0.229   0.235   0.234   0.230   0.222   0.227   0.233   0.231   0.234   0.236   0.240   0.240   0.238   0.235   0.239   0.241   0.235   0.233   0.241   0.234   0.234   0.243   0.244   0.239   0.239   0.238   0.246   0.246   0.255   0.244   0.241   0.242   0.241   0.242   0.247   0.244   0.246   0.244   0.243   0.233   0.234   0.236   0.243   0.257   0.251   0.246   0.242   0.236   0.235   0.229   0.227   0.232   0.231   0.234   0.240   0.239   0.236   0.235   0.239   0.234   0.248   0.251   0.241   0.244   0.246   0.246   0.237   0.229   0.238   0.232   0.236   0.233   0.231   0.224   0.234   0.234   0.233   0.235   0.228   0.236   0.236   0.240   0.235   0.240   0.238   0.234   0.232   0.241   0.239   0.241   0.240   0.240   0.237   0.234   0.231   0.231   0.231   0.240
    10.30    0.234   0.238   0.233   0.240   0.239   0.241   0.232   0.237   0.234   0.237   0.235   0.241   0.246   0.244   0.236   0.234   0.228   0.228   0.231   0.234   0.234   0.225   0.227   0.238   0.234   0.232   0.235   0.236   0.236   0.232   0.231   0.231   0.225   0.233   0.230   0.226   0.230   0.225   0.223   0.225   0.224   0.226   0.228   0.228   0.227   0.227   0.233   0.237   0.240   0.244   0.241   0.236   0.238   0.247   0.239   0.231   0.233   0.228   0.239   0.247   0.242   0.242   0.240   0.238   0.241   0.240   0.234   0.234   0.233   0.232   0.231   0.232   0.231   0.229   0.237   0.232   0.241   0.240   0.235   0.242   0.244   0.246   0.246   0.236   0.239   0.243   0.240   0.243   0.239   0.232   0.231   0.236   0.238   0.241   0.236   0.234   0.234   0.236   0.228   0.233   0.223   0.233   0.238   0.240   0.234   0.236   0.241   0.235   0.234   0.236   0.242   0.229   0.233   0.239   0.238   0.238   0.237   0.244   0.243   0.240   0.248   0.242   0.246   0.244   0.241   0.244   0.246   0.239   0.240   0.254   0.252   0.238   0.244   0.243   0.232   0.233   0.238   0.234   0.242   0.249   0.251   0.246   0.233   0.233   0.231   0.230   0.221   0.225   0.226   0.233   0.234   0.231   0.228   0.238   0.241   0.238   0.241   0.234   0.234   0.242   0.244   0.238   0.241   0.231   0.233   0.232   0.243   0.231   0.238   0.231   0.230   0.237   0.230   0.245   0.243   0.242   0.241   0.243   0.235   0.248   0.238   0.242   0.239   0.238   0.237   0.236   0.240   0.229   0.231   0.238   0.231   0.235   0.223
     1.00    0.237   0.238   0.230   0.236   0.233   0.235   0.235   0.234   0.234   0.238   0.243   0.239   0.236   0.243   0.242   0.231   0.235   0.236   0.238   0.233   0.229   0.232   0.238   0.235   0.234   0.234   0.237   0.231   0.229   0.233   0.235   0.240   0.230   0.228   0.231   0.229   0.227   0.223   0.218   0.230   0.229   0.221   0.224   0.222   0.230   0.241   0.237   0.232   0.239   0.246   0.240   0.240   0.243   0.243   0.242   0.245   0.242   0.241   0.238   0.240   0.242   0.239   0.242   0.236   0.242   0.240   0.239   0.239   0.233   0.235   0.227   0.226   0.240   0.236   0.230   0.232   0.242   0.246   0.230   0.238   0.241   0.240   0.245   0.250   0.240   0.241   0.246   0.245   0.240   0.237   0.236   0.231   0.239   0.236   0.230   0.230   0.238   0.230   0.238   0.233   0.230   0.231   0.230   0.235   0.241   0.240   0.244   0.233   0.237   0.243   0.242   0.243   0.237   0.242   0.237   0.241   0.238   0.242   0.242   0.240   0.247   0.243   0.247   0.242   0.243   0.249   0.243   0.249   0.256   0.250   0.242   0.241   0.241   0.248   0.236   0.241   0.247   0.240   0.233   0.235   0.241   0.240   0.233   0.232   0.233   0.227   0.224   0.226   0.231   0.238   0.236   0.230   0.238   0.243   0.241   0.243   0.244   0.245   0.230   0.234   0.229   0.236   0.241   0.233   0.236   0.232   0.234   0.241   0.242   0.234   0.235   0.243   0.240   0.246   0.244   0.245   0.238   0.242   0.240   0.243   0.237   0.237   0.235   0.233   0.236   0.236   0.240   0.235   0.233   0.234   0.233   0.233   0.234

   Mean standard deviation across all grid points:
      u component:    0.464 m/s
      v component:    0.391 m/s
      w component:    0.237 m/s


U-component (X) statistics from the interpolated hub point:

   Mean =   9.7063 m/s
   TI   =   5.2892 %


Processing complete.  2.06749E+05 CPU seconds used.
