
This summary file was generated by TurbSim (from OpenFAST-v3.5.3) on 20-Apr-2025 at 10:11:06.


Runtime Options:

**********  Random seed #1
    RANLUX  Type of random number generator
         F  Output binary HH turbulence parameters?
         F  Output formatted turbulence parameters?
         F  Output AeroDyn HH files?
         T  Output AeroDyn FF files?
         F  Output BLADED FF files?
         F  Output tower data?
         F  Output HAWC FF files?
         F  Output formatted FF files?
         T  Output coherent turbulence time step file?
 0 -  NONE  IEC turbulence models scaled to exact specified standard deviation


Turbine/Model Specifications:

        37  Vertical grid-point matrix dimension
        35  Horizontal grid-point matrix dimension
     0.250  Time step [seconds]
   900.000  Analysis time [seconds]
   900.000  Usable output time [seconds]
    89.350  Hub height [m]
   167.400  Grid height [m]
   158.100  Grid width [m]
     0.000  Vertical flow angle [degrees]
     0.000  Horizontal flow angle [degrees]


Meteorological Boundary Conditions:

    TIMESR  User-input time series spectral model
       N/A  IEC standard
       N/A  IEC turbulence characteristic
       N/A  IEC turbulence type
       N/A  IEC Extreme Turbulence Model (ETM) "c" parameter [m/s]
       PL   Wind profile type
    90.000  Reference height [m]
    10.000  Reference wind speed [m/s]
       N/A  Jet height [m]
     0.120  Power law exponent
     0.030  Surface roughness length [m]


Non-IEC Meteorological Boundary Conditions:

    45.000  Site latitude [degrees]
     0.050  Gradient Richardson number
     0.480  Friction or shear velocity [m/s]
       N/A  Mixing layer depth [m]
       N/A  Mean hub u'w' Reynolds stress
       N/A  Mean hub u'v' Reynolds stress
       N/A  Mean hub v'w' Reynolds stress


Spatial Coherence Models:

       IEC  u-component coherence model
       IEC  v-component coherence model
       IEC  w-component coherence model
(   12.000, 0.353E-03)  u-component coherence parameters
(   12.000, 0.353E-03)  v-component coherence parameters
(   12.000, 0.353E-03)  w-component coherence parameters
       N/A  Coherence exponent


Coherent Turbulence Scaling Parameters:

.\EventData
            Name of the path containing the coherent turbulence data files
       les  Type of coherent turbulence data files
     0.500  Disturbance scale (ratio of wave height to rotor diameter)
     0.500  Fractional location of tower centerline from right
     1.000  Fractional location of hub height from the bottom of the dataset
    30.000  Minimum start time for coherent structures [seconds]


Profiles from User-Defined Time-Series Input:

  Height   Wind Speed   Horizontal Angle   Vertical Angle
   (m)        (m/s)          (deg)              (deg)    
  ------   ----------   ----------------   --------------
   94.00      10.00          -0.63               -0.00


You have requested that the following file(s) be generated:

   /kfs3/scratch/agupta/Projects/RL_Incubator/FinalRuns_Veer/Seed4/./FFSim_Seed4/Cond00_v10.0_PL0.12_TI5.0/Case2_wdirp04/Seed_9/TurbSim/HighT8.bts (AeroDyn/TurbSim full-field wind file)


Turbulence Simulation Scaling Parameter Summary:

   Turbulence model used                            =  User-input time series
   Gradient Richardson number                       =    0.050
   Monin-Obukhov (M-O) z/L parameter                =    0.067
   Monin-Obukhov (M-O) length scale                 = 1340.250 m
   Mean wind speed at hub height                    =    9.991 m/s

   Wind profile type                                =  Power law
   Power law exponent                               =    0.120
   Mean shear across rotor disk                     =    0.019 (m/s)/m
   Assumed rotor diameter                           =  158.100 m
   Surface roughness length                         =    0.030 m

   Nyquist frequency of turbulent wind field        =    2.000 Hz

   Number of time steps in the FFT                  =     3600
   Number of time steps output                      =     3600
   Number of points simulated                       =     1296


Mean Flow Angles:

   Vertical   =   0.0 degrees
   Horizontal =   0.0 degrees

Mean Wind Speed Profile:

   Height    Wind Speed   Horizontal Angle  Vertical Angle  U-comp (X)   V-comp (Y)   W-comp (Z)
     (m)        (m/s)         (degrees)       (degrees)       (m/s)        (m/s)        (m/s)   
   ------    ----------   ----------------  --------------  ----------   ----------   ----------
    168.4       10.78            0.00            0.00         10.78         0.00         0.00
    163.7       10.74            0.00            0.00         10.74         0.00         0.00
    159.1       10.71            0.00            0.00         10.71         0.00         0.00
    154.4       10.67            0.00            0.00         10.67         0.00         0.00
    149.8       10.63            0.00            0.00         10.63         0.00         0.00
    145.1       10.59            0.00            0.00         10.59         0.00         0.00
    140.5       10.55            0.00            0.00         10.55         0.00         0.00
    135.8       10.51            0.00            0.00         10.51         0.00         0.00
    131.2       10.46            0.00            0.00         10.46         0.00         0.00
    126.5       10.42            0.00            0.00         10.42         0.00         0.00
    121.9       10.37            0.00            0.00         10.37         0.00         0.00
    117.2       10.32            0.00            0.00         10.32         0.00         0.00
    112.6       10.27            0.00            0.00         10.27         0.00         0.00
    107.9       10.22            0.00            0.00         10.22         0.00         0.00
    103.3       10.17            0.00            0.00         10.17         0.00         0.00
     98.6       10.11            0.00            0.00         10.11         0.00         0.00
     94.0       10.05            0.00            0.00         10.05         0.00         0.00
     89.3        9.99            0.00            0.00          9.99         0.00         0.00
     84.7        9.93            0.00            0.00          9.93         0.00         0.00
     80.0        9.86            0.00            0.00          9.86         0.00         0.00
     75.4        9.79            0.00            0.00          9.79         0.00         0.00
     70.7        9.72            0.00            0.00          9.72         0.00         0.00
     66.1        9.64            0.00            0.00          9.64         0.00         0.00
     61.4        9.55            0.00            0.00          9.55         0.00         0.00
     56.8        9.46            0.00            0.00          9.46         0.00         0.00
     52.1        9.37            0.00            0.00          9.37         0.00         0.00
     47.5        9.26            0.00            0.00          9.26         0.00         0.00
     42.8        9.15            0.00            0.00          9.15         0.00         0.00
     38.2        9.02            0.00            0.00          9.02         0.00         0.00
     33.5        8.88            0.00            0.00          8.88         0.00         0.00
     28.9        8.73            0.00            0.00          8.73         0.00         0.00
     24.2        8.54            0.00            0.00          8.54         0.00         0.00
     19.6        8.33            0.00            0.00          8.33         0.00         0.00
     14.9        8.06            0.00            0.00          8.06         0.00         0.00
     10.3        7.71            0.00            0.00          7.71         0.00         0.00
      5.6        7.17            0.00            0.00          7.17         0.00         0.00
      1.0        5.83            0.00            0.00          5.83         0.00         0.00


Harvested Random Seeds after Generation of the Random Numbers:

     65026800 K 1
            0 K 2


Hub-Height Simulated Turbulence Statistical Summary:

   Type of Wind        Min (m/s)   Mean (m/s)    Max (m/s)  Sigma (m/s)       TI (%)
   ----------------    ---------   ----------    ---------  -----------       ------
   Longitudinal (u)         8.76         9.99        11.51        0.434        4.348
   Lateral (v)             -1.18        -0.00         1.49        0.408        4.079
   Vertical (w)            -0.74         0.00         0.64        0.216        2.165
   U component              8.76         9.99        11.51        0.434        4.348
   V component             -1.18        -0.00         1.49        0.408        4.079
   W component             -0.74         0.00         0.64        0.216        2.165
   Horizontal (U&V)         8.76        10.00        11.51        0.434        4.340
   Total                    8.77        10.00        11.51        0.434        4.337

                       Min Reynolds     Mean Reynolds    Max Reynolds    Correlation
   Product             Stress (m/s)^2   Stress (m/s)^2   Stress (m/s)^2  Coefficient
   ----------------    --------------   --------------   --------------  -----------
   u'w'                     -0.657             0.004             0.595         0.039
   u'v'                     -0.842             0.021             1.173         0.116
   v'w'                     -0.917            -0.005             0.426        -0.055


   Friction Velocity (Ustar)  =      0.061 m/s
   Maximum Instantaneous TKE  =      1.387 (m/s)^2
   Maximum Instantaneous CTKE =      0.745 (m/s)^2


Grid Point Variance Summary:

   Y-coord  -79.05  -74.40  -69.75  -65.10  -60.45  -55.80  -51.15  -46.50  -41.85  -37.20  -32.55  -27.90  -23.25  -18.60  -13.95   -9.30   -4.65    0.00    4.65    9.30   13.95   18.60   23.25   27.90   32.55   37.20   41.85   46.50   51.15   55.80   60.45   65.10   69.75   74.40   79.05

   Height   Standard deviation at grid points for the u component:
   168.40    0.569   0.548   0.526   0.510   0.513   0.503   0.508   0.508   0.521   0.502   0.492   0.508   0.493   0.450   0.469   0.450   0.475   0.465   0.483   0.487   0.474   0.456   0.439   0.437   0.418   0.441   0.448   0.464   0.455   0.458   0.485   0.478   0.475   0.463   0.463
   163.75    0.577   0.530   0.532   0.514   0.513   0.519   0.558   0.520   0.536   0.534   0.510   0.482   0.478   0.458   0.457   0.449   0.468   0.451   0.482   0.477   0.454   0.436   0.408   0.428   0.433   0.431   0.442   0.451   0.451   0.444   0.441   0.447   0.460   0.470   0.471
   159.10    0.555   0.541   0.537   0.548   0.545   0.550   0.554   0.561   0.574   0.531   0.530   0.502   0.475   0.483   0.486   0.471   0.439   0.457   0.469   0.472   0.463   0.413   0.399   0.398   0.449   0.436   0.427   0.446   0.445   0.453   0.447   0.433   0.435   0.446   0.445
   154.45    0.579   0.561   0.538   0.560   0.566   0.569   0.556   0.558   0.543   0.525   0.518   0.495   0.481   0.483   0.458   0.461   0.461   0.452   0.485   0.487   0.429   0.424   0.397   0.395   0.430   0.430   0.433   0.438   0.425   0.435   0.420   0.408   0.416   0.419   0.426
   149.80    0.578   0.559   0.535   0.555   0.550   0.563   0.567   0.549   0.568   0.557   0.510   0.532   0.523   0.494   0.502   0.463   0.436   0.470   0.505   0.488   0.460   0.442   0.407   0.406   0.421   0.416   0.441   0.429   0.409   0.410   0.402   0.441   0.423   0.429   0.436
   145.15    0.574   0.562   0.569   0.580   0.578   0.582   0.574   0.557   0.555   0.547   0.548   0.524   0.524   0.511   0.482   0.450   0.456   0.485   0.505   0.477   0.470   0.454   0.424   0.399   0.396   0.391   0.430   0.432   0.419   0.407   0.391   0.430   0.443   0.427   0.429
   140.50    0.606   0.574   0.579   0.569   0.577   0.590   0.577   0.553   0.575   0.556   0.543   0.518   0.507   0.509   0.471   0.465   0.458   0.480   0.513   0.475   0.463   0.429   0.441   0.411   0.403   0.416   0.409   0.428   0.414   0.419   0.400   0.406   0.428   0.439   0.425
   135.85    0.599   0.603   0.606   0.592   0.576   0.572   0.585   0.577   0.577   0.567   0.539   0.504   0.501   0.469   0.457   0.481   0.484   0.486   0.490   0.469   0.446   0.453   0.417   0.431   0.423   0.424   0.439   0.420   0.410   0.409   0.419   0.432   0.424   0.439   0.423
   131.20    0.584   0.589   0.600   0.623   0.584   0.573   0.536   0.567   0.583   0.554   0.531   0.512   0.496   0.457   0.478   0.468   0.491   0.477   0.467   0.461   0.454   0.449   0.435   0.410   0.433   0.424   0.410   0.435   0.420   0.440   0.428   0.435   0.445   0.436   0.446
   126.55    0.571   0.570   0.581   0.598   0.577   0.572   0.544   0.553   0.564   0.556   0.515   0.526   0.502   0.500   0.484   0.475   0.509   0.494   0.483   0.442   0.431   0.438   0.418   0.419   0.437   0.423   0.424   0.419   0.410   0.429   0.407   0.403   0.388   0.391   0.414
   121.90    0.557   0.556   0.546   0.558   0.545   0.520   0.518   0.522   0.533   0.548   0.544   0.518   0.510   0.509   0.501   0.459   0.484   0.478   0.436   0.421   0.422   0.399   0.391   0.407   0.417   0.413   0.428   0.424   0.412   0.409   0.394   0.379   0.380   0.396   0.411
   117.25    0.534   0.535   0.543   0.496   0.501   0.467   0.499   0.501   0.525   0.518   0.515   0.497   0.500   0.463   0.475   0.483   0.457   0.447   0.444   0.404   0.427   0.412   0.385   0.400   0.395   0.393   0.403   0.401   0.404   0.395   0.401   0.387   0.384   0.392   0.381
   112.60    0.524   0.546   0.515   0.499   0.490   0.457   0.460   0.486   0.493   0.500   0.475   0.496   0.485   0.479   0.493   0.480   0.459   0.445   0.416   0.390   0.406   0.400   0.388   0.377   0.369   0.369   0.375   0.401   0.393   0.406   0.415   0.386   0.376   0.374   0.381
   107.95    0.504   0.544   0.509   0.507   0.482   0.433   0.443   0.462   0.491   0.482   0.486   0.520   0.489   0.508   0.506   0.487   0.483   0.432   0.436   0.412   0.391   0.382   0.380   0.358   0.365   0.368   0.376   0.382   0.400   0.408   0.386   0.384   0.363   0.364   0.392
   103.30    0.527   0.525   0.506   0.498   0.470   0.426   0.433   0.470   0.479   0.484   0.501   0.490   0.474   0.503   0.492   0.475   0.446   0.441   0.416   0.412   0.360   0.374   0.364   0.369   0.388   0.381   0.378   0.383   0.403   0.406   0.387   0.350   0.368   0.390   0.390
    98.65    0.529   0.524   0.525   0.484   0.460   0.442   0.451   0.468   0.448   0.473   0.490   0.484   0.465   0.492   0.480   0.469   0.439   0.448   0.451   0.416   0.390   0.378   0.345   0.376   0.370   0.370   0.377   0.354   0.383   0.377   0.371   0.374   0.365   0.393   0.373
    94.00    0.504   0.494   0.502   0.483   0.467   0.422   0.438   0.454   0.438   0.477   0.480   0.493   0.472   0.461   0.484   0.475   0.459   0.443   0.417   0.412   0.410   0.364   0.364   0.360   0.358   0.366   0.380   0.363   0.359   0.355   0.344   0.356   0.379   0.372   0.382
    89.35    0.492   0.462   0.448   0.456   0.452   0.441   0.453   0.445   0.458   0.472   0.457   0.468   0.458   0.464   0.466   0.468   0.442   0.434   0.428   0.421   0.418   0.390   0.382   0.382   0.357   0.363   0.381   0.358   0.369   0.350   0.352   0.358   0.361   0.367   0.388
    84.70    0.469   0.446   0.452   0.466   0.459   0.456   0.477   0.438   0.453   0.452   0.441   0.451   0.458   0.477   0.454   0.446   0.420   0.424   0.438   0.416   0.404   0.401   0.375   0.391   0.379   0.383   0.386   0.374   0.388   0.361   0.359   0.368   0.383   0.381   0.377
    80.05    0.448   0.455   0.468   0.476   0.478   0.467   0.454   0.445   0.421   0.444   0.442   0.443   0.452   0.450   0.437   0.430   0.420   0.422   0.406   0.394   0.388   0.403   0.381   0.371   0.374   0.392   0.375   0.378   0.383   0.364   0.356   0.385   0.392   0.407   0.380
    75.40    0.454   0.465   0.464   0.479   0.462   0.452   0.454   0.435   0.437   0.421   0.407   0.414   0.437   0.439   0.445   0.434   0.419   0.415   0.382   0.379   0.365   0.371   0.384   0.384   0.393   0.384   0.376   0.379   0.373   0.366   0.394   0.382   0.412   0.413   0.382
    70.75    0.439   0.460   0.469   0.469   0.467   0.471   0.456   0.428   0.405   0.395   0.369   0.383   0.433   0.456   0.448   0.433   0.432   0.417   0.385   0.383   0.380   0.362   0.366   0.383   0.371   0.358   0.381   0.364   0.364   0.395   0.404   0.408   0.397   0.392   0.408
    66.10    0.465   0.468   0.481   0.473   0.454   0.449   0.432   0.438   0.413   0.403   0.393   0.388   0.404   0.442   0.408   0.413   0.405   0.408   0.393   0.373   0.369   0.369   0.384   0.382   0.361   0.375   0.381   0.360   0.345   0.371   0.399   0.412   0.429   0.432   0.416
    61.45    0.470   0.475   0.472   0.475   0.495   0.464   0.458   0.452   0.438   0.439   0.394   0.411   0.399   0.406   0.400   0.386   0.381   0.373   0.376   0.363   0.363   0.390   0.379   0.379   0.385   0.359   0.359   0.344   0.354   0.362   0.405   0.414   0.425   0.410   0.410
    56.80    0.447   0.489   0.483   0.508   0.508   0.478   0.485   0.476   0.450   0.438   0.401   0.399   0.398   0.401   0.383   0.378   0.386   0.362   0.376   0.376   0.365   0.363   0.384   0.402   0.391   0.382   0.371   0.356   0.349   0.375   0.395   0.420   0.427   0.400   0.385
    52.15    0.433   0.451   0.451   0.479   0.503   0.477   0.463   0.447   0.439   0.433   0.401   0.393   0.390   0.403   0.374   0.392   0.387   0.373   0.360   0.367   0.374   0.367   0.383   0.387   0.377   0.372   0.370   0.359   0.347   0.367   0.412   0.391   0.404   0.390   0.388
    47.50    0.411   0.429   0.457   0.458   0.461   0.452   0.436   0.439   0.437   0.430   0.419   0.415   0.409   0.402   0.381   0.393   0.374   0.399   0.388   0.378   0.388   0.363   0.353   0.373   0.361   0.346   0.361   0.356   0.357   0.381   0.398   0.420   0.405   0.369   0.354
    42.85    0.434   0.433   0.447   0.428   0.460   0.444   0.425   0.425   0.430   0.441   0.395   0.395   0.398   0.396   0.382   0.377   0.377   0.379   0.378   0.408   0.418   0.394   0.389   0.372   0.389   0.343   0.331   0.362   0.361   0.365   0.362   0.396   0.383   0.379   0.359
    38.20    0.410   0.443   0.444   0.427   0.428   0.430   0.423   0.430   0.409   0.408   0.406   0.393   0.386   0.377   0.388   0.370   0.391   0.375   0.389   0.385   0.403   0.400   0.390   0.363   0.373   0.368   0.360   0.353   0.377   0.378   0.394   0.400   0.400   0.375   0.362
    33.55    0.431   0.438   0.427   0.404   0.408   0.401   0.414   0.428   0.418   0.398   0.407   0.391   0.377   0.375   0.360   0.353   0.364   0.370   0.384   0.383   0.378   0.371   0.388   0.381   0.378   0.394   0.396   0.377   0.393   0.410   0.375   0.389   0.373   0.394   0.350
    28.90    0.438   0.445   0.451   0.403   0.400   0.402   0.401   0.399   0.400   0.384   0.394   0.388   0.386   0.370   0.356   0.370   0.368   0.370   0.402   0.386   0.378   0.376   0.390   0.394   0.371   0.393   0.389   0.378   0.386   0.393   0.408   0.384   0.391   0.369   0.364
    24.25    0.432   0.429   0.435   0.411   0.404   0.401   0.393   0.369   0.388   0.397   0.393   0.388   0.385   0.393   0.386   0.383   0.401   0.403   0.400   0.399   0.373   0.370   0.387   0.380   0.384   0.388   0.378   0.370   0.387   0.385   0.423   0.435   0.420   0.383   0.371
    19.60    0.438   0.445   0.440   0.434   0.394   0.403   0.411   0.382   0.390   0.374   0.392   0.387   0.367   0.373   0.381   0.391   0.402   0.382   0.400   0.404   0.402   0.380   0.392   0.365   0.379   0.369   0.375   0.388   0.400   0.400   0.418   0.436   0.436   0.398   0.377
    14.95    0.412   0.457   0.428   0.417   0.401   0.413   0.401   0.388   0.395   0.378   0.393   0.386   0.375   0.379   0.387   0.401   0.391   0.390   0.400   0.409   0.402   0.401   0.381   0.375   0.377   0.361   0.363   0.367   0.396   0.397   0.421   0.422   0.399   0.392   0.362
    10.30    0.422   0.440   0.424   0.410   0.403   0.398   0.392   0.389   0.388   0.382   0.387   0.369   0.374   0.396   0.382   0.388   0.364   0.371   0.370   0.353   0.374   0.378   0.389   0.387   0.381   0.381   0.394   0.404   0.399   0.407   0.392   0.396   0.395   0.379   0.393
     5.65    0.425   0.451   0.419   0.428   0.427   0.406   0.385   0.392   0.381   0.379   0.379   0.367   0.376   0.391   0.382   0.409   0.404   0.387   0.366   0.352   0.365   0.421   0.394   0.377   0.383   0.407   0.415   0.403   0.399   0.387   0.396   0.392   0.389   0.400   0.354
     1.00    0.442   0.424   0.450   0.426   0.416   0.408   0.400   0.408   0.401   0.384   0.384   0.385   0.381   0.403   0.422   0.427   0.398   0.395   0.373   0.403   0.416   0.441   0.416   0.395   0.394   0.403   0.391   0.407   0.423   0.404   0.384   0.381   0.394   0.391   0.374

   Height   Standard deviation at grid points for the v component:
   168.40    0.355   0.343   0.325   0.337   0.343   0.358   0.369   0.366   0.360   0.362   0.356   0.371   0.361   0.390   0.392   0.408   0.426   0.410   0.427   0.402   0.397   0.428   0.416   0.409   0.447   0.435   0.431   0.436   0.440   0.438   0.450   0.465   0.446   0.447   0.401
   163.75    0.365   0.355   0.359   0.370   0.341   0.354   0.370   0.368   0.355   0.361   0.351   0.365   0.372   0.366   0.383   0.413   0.416   0.418   0.408   0.389   0.399   0.418   0.438   0.416   0.441   0.444   0.455   0.472   0.444   0.441   0.451   0.441   0.446   0.439   0.397
   159.10    0.364   0.340   0.357   0.354   0.346   0.338   0.354   0.357   0.358   0.392   0.377   0.373   0.380   0.371   0.372   0.414   0.417   0.398   0.408   0.408   0.437   0.423   0.436   0.413   0.421   0.436   0.458   0.451   0.450   0.442   0.436   0.419   0.415   0.423   0.403
   154.45    0.358   0.339   0.350   0.350   0.338   0.365   0.346   0.369   0.372   0.373   0.386   0.383   0.371   0.358   0.395   0.408   0.396   0.403   0.409   0.422   0.416   0.422   0.437   0.426   0.407   0.433   0.442   0.461   0.442   0.448   0.426   0.387   0.401   0.407   0.409
   149.80    0.367   0.350   0.349   0.360   0.360   0.376   0.386   0.377   0.379   0.384   0.385   0.376   0.361   0.371   0.400   0.380   0.383   0.406   0.428   0.423   0.422   0.427   0.433   0.435   0.425   0.426   0.452   0.463   0.451   0.455   0.425   0.387   0.405   0.409   0.388
   145.15    0.378   0.368   0.370   0.377   0.380   0.360   0.370   0.374   0.371   0.379   0.364   0.357   0.374   0.381   0.381   0.381   0.395   0.400   0.424   0.433   0.447   0.439   0.432   0.434   0.437   0.451   0.455   0.443   0.430   0.407   0.433   0.407   0.399   0.407   0.403
   140.50    0.366   0.368   0.360   0.373   0.370   0.362   0.363   0.365   0.365   0.373   0.378   0.379   0.372   0.361   0.356   0.391   0.398   0.417   0.433   0.450   0.458   0.462   0.462   0.437   0.458   0.470   0.472   0.443   0.433   0.431   0.434   0.423   0.414   0.416   0.397
   135.85    0.363   0.382   0.370   0.374   0.384   0.381   0.353   0.370   0.361   0.360   0.381   0.379   0.376   0.368   0.392   0.390   0.409   0.425   0.433   0.450   0.452   0.454   0.445   0.454   0.470   0.458   0.452   0.448   0.458   0.437   0.455   0.451   0.439   0.423   0.417
   131.20    0.388   0.385   0.388   0.377   0.386   0.375   0.361   0.358   0.362   0.377   0.393   0.393   0.378   0.380   0.384   0.376   0.408   0.424   0.420   0.418   0.428   0.434   0.445   0.437   0.438   0.433   0.421   0.428   0.456   0.453   0.459   0.460   0.447   0.424   0.419
   126.55    0.415   0.393   0.388   0.397   0.379   0.397   0.377   0.360   0.360   0.381   0.381   0.391   0.389   0.379   0.372   0.393   0.395   0.393   0.396   0.398   0.407   0.422   0.434   0.438   0.432   0.407   0.412   0.430   0.427   0.443   0.465   0.465   0.442   0.423   0.420
   121.90    0.424   0.410   0.414   0.425   0.407   0.387   0.387   0.378   0.369   0.367   0.371   0.359   0.382   0.379   0.380   0.382   0.406   0.404   0.424   0.408   0.410   0.430   0.422   0.414   0.402   0.401   0.417   0.416   0.441   0.442   0.454   0.441   0.434   0.422   0.430
   117.25    0.441   0.434   0.430   0.428   0.400   0.389   0.393   0.383   0.380   0.374   0.359   0.371   0.372   0.394   0.381   0.393   0.407   0.403   0.424   0.441   0.408   0.411   0.408   0.421   0.399   0.397   0.422   0.435   0.438   0.443   0.451   0.437   0.437   0.445   0.418
   112.60    0.439   0.419   0.427   0.433   0.438   0.407   0.372   0.376   0.388   0.375   0.385   0.395   0.409   0.391   0.382   0.410   0.409   0.398   0.415   0.419   0.409   0.400   0.414   0.404   0.410   0.410   0.410   0.423   0.423   0.435   0.405   0.421   0.429   0.443   0.405
   107.95    0.434   0.453   0.436   0.439   0.427   0.399   0.386   0.373   0.384   0.398   0.404   0.409   0.406   0.384   0.400   0.412   0.420   0.414   0.404   0.414   0.414   0.407   0.401   0.383   0.393   0.391   0.388   0.408   0.415   0.410   0.397   0.405   0.429   0.434   0.419
   103.30    0.425   0.445   0.433   0.428   0.400   0.416   0.403   0.380   0.381   0.434   0.417   0.409   0.394   0.386   0.383   0.389   0.425   0.406   0.412   0.430   0.416   0.401   0.398   0.392   0.405   0.415   0.398   0.404   0.408   0.408   0.415   0.415   0.391   0.397   0.388
    98.65    0.408   0.417   0.420   0.413   0.418   0.394   0.396   0.377   0.391   0.416   0.426   0.441   0.401   0.394   0.388   0.395   0.405   0.426   0.411   0.411   0.407   0.396   0.412   0.407   0.404   0.420   0.413   0.410   0.416   0.404   0.408   0.411   0.403   0.381   0.366
    94.00    0.442   0.413   0.413   0.396   0.396   0.393   0.395   0.382   0.397   0.400   0.417   0.406   0.402   0.399   0.402   0.392   0.397   0.401   0.406   0.391   0.384   0.370   0.395   0.407   0.399   0.409   0.401   0.400   0.415   0.398   0.410   0.410   0.400   0.381   0.364
    89.35    0.408   0.405   0.390   0.376   0.371   0.379   0.380   0.383   0.385   0.385   0.377   0.413   0.392   0.403   0.398   0.400   0.383   0.408   0.397   0.374   0.387   0.388   0.396   0.392   0.389   0.391   0.417   0.384   0.406   0.423   0.409   0.428   0.406   0.393   0.389
    84.70    0.404   0.397   0.369   0.366   0.368   0.368   0.393   0.377   0.358   0.373   0.388   0.403   0.404   0.419   0.398   0.396   0.402   0.414   0.410   0.378   0.404   0.396   0.397   0.395   0.385   0.373   0.391   0.400   0.397   0.403   0.404   0.414   0.411   0.408   0.406
    80.05    0.408   0.393   0.388   0.360   0.373   0.371   0.371   0.364   0.365   0.368   0.385   0.395   0.387   0.409   0.419   0.404   0.431   0.395   0.394   0.370   0.383   0.383   0.380   0.387   0.382   0.381   0.387   0.385   0.397   0.416   0.431   0.416   0.395   0.426   0.429
    75.40    0.414   0.386   0.385   0.379   0.379   0.375   0.358   0.352   0.363   0.377   0.393   0.359   0.360   0.410   0.402   0.423   0.410   0.404   0.395   0.372   0.376   0.372   0.386   0.377   0.369   0.381   0.398   0.399   0.412   0.415   0.418   0.402   0.392   0.404   0.418
    70.75    0.420   0.388   0.388   0.390   0.381   0.363   0.340   0.348   0.358   0.367   0.382   0.353   0.362   0.398   0.409   0.415   0.418   0.421   0.392   0.398   0.373   0.373   0.382   0.400   0.376   0.397   0.410   0.394   0.406   0.394   0.408   0.403   0.406   0.419   0.390
    66.10    0.409   0.387   0.384   0.385   0.362   0.358   0.343   0.346   0.357   0.353   0.374   0.359   0.380   0.387   0.413   0.422   0.394   0.375   0.369   0.373   0.382   0.396   0.398   0.385   0.380   0.391   0.402   0.395   0.404   0.416   0.403   0.426   0.428   0.421   0.408
    61.45    0.412   0.417   0.372   0.379   0.354   0.348   0.343   0.332   0.365   0.369   0.367   0.373   0.386   0.369   0.379   0.372   0.365   0.359   0.354   0.348   0.372   0.396   0.406   0.407   0.393   0.391   0.385   0.393   0.397   0.419   0.421   0.408   0.436   0.455   0.421
    56.80    0.405   0.379   0.381   0.383   0.374   0.367   0.341   0.342   0.358   0.370   0.358   0.375   0.375   0.373   0.349   0.330   0.344   0.351   0.342   0.348   0.361   0.382   0.392   0.385   0.393   0.380   0.389   0.391   0.397   0.410   0.432   0.437   0.460   0.464   0.434
    52.15    0.398   0.392   0.383   0.381   0.374   0.371   0.367   0.364   0.351   0.362   0.359   0.356   0.362   0.355   0.352   0.333   0.325   0.332   0.352   0.357   0.375   0.370   0.378   0.376   0.390   0.401   0.410   0.402   0.411   0.410   0.436   0.444   0.444   0.451   0.449
    47.50    0.379   0.396   0.401   0.391   0.406   0.381   0.362   0.363   0.351   0.353   0.355   0.364   0.349   0.344   0.339   0.311   0.336   0.332   0.342   0.350   0.361   0.363   0.378   0.384   0.375   0.402   0.417   0.409   0.413   0.437   0.425   0.434   0.443   0.475   0.467
    42.85    0.372   0.392   0.397   0.403   0.391   0.374   0.363   0.329   0.331   0.328   0.360   0.366   0.353   0.342   0.326   0.341   0.326   0.327   0.339   0.354   0.370   0.353   0.385   0.397   0.392   0.391   0.398   0.420   0.448   0.448   0.452   0.440   0.455   0.452   0.446
    38.20    0.392   0.400   0.382   0.385   0.360   0.371   0.351   0.328   0.335   0.360   0.358   0.355   0.357   0.350   0.332   0.341   0.330   0.328   0.335   0.377   0.376   0.368   0.380   0.383   0.409   0.411   0.407   0.414   0.426   0.471   0.462   0.455   0.441   0.427   0.431
    33.55    0.382   0.399   0.384   0.364   0.383   0.346   0.367   0.338   0.338   0.349   0.364   0.361   0.353   0.331   0.332   0.327   0.336   0.351   0.359   0.393   0.399   0.385   0.404   0.404   0.413   0.442   0.411   0.415   0.448   0.457   0.464   0.434   0.435   0.432   0.433
    28.90    0.375   0.374   0.384   0.369   0.384   0.363   0.367   0.358   0.360   0.358   0.338   0.338   0.333   0.322   0.328   0.356   0.344   0.343   0.348   0.368   0.375   0.391   0.410   0.413   0.415   0.428   0.434   0.448   0.468   0.456   0.420   0.444   0.459   0.441   0.411
    24.25    0.383   0.351   0.362   0.378   0.376   0.345   0.348   0.363   0.371   0.371   0.336   0.331   0.339   0.342   0.346   0.363   0.354   0.346   0.353   0.375   0.359   0.388   0.412   0.395   0.420   0.415   0.424   0.467   0.449   0.445   0.434   0.438   0.438   0.416   0.419
    19.60    0.372   0.362   0.354   0.373   0.356   0.356   0.343   0.348   0.349   0.355   0.347   0.341   0.362   0.354   0.345   0.366   0.364   0.363   0.381   0.391   0.377   0.367   0.384   0.402   0.403   0.420   0.439   0.470   0.471   0.474   0.466   0.428   0.430   0.430   0.431
    14.95    0.358   0.349   0.348   0.354   0.377   0.368   0.367   0.377   0.372   0.375   0.368   0.366   0.364   0.356   0.348   0.353   0.368   0.383   0.390   0.393   0.378   0.378   0.389   0.404   0.397   0.419   0.443   0.451   0.458   0.460   0.467   0.447   0.453   0.433   0.437
    10.30    0.358   0.363   0.326   0.358   0.359   0.365   0.401   0.403   0.370   0.367   0.398   0.394   0.392   0.379   0.391   0.381   0.397   0.376   0.407   0.419   0.419   0.393   0.416   0.423   0.429   0.443   0.456   0.450   0.446   0.442   0.454   0.431   0.422   0.411   0.417
     5.65    0.365   0.356   0.339   0.346   0.356   0.362   0.387   0.398   0.379   0.384   0.391   0.425   0.408   0.404   0.416   0.391   0.403   0.402   0.413   0.429   0.420   0.403   0.418   0.421   0.407   0.424   0.447   0.469   0.420   0.418   0.435   0.422   0.387   0.395   0.412
     1.00    0.361   0.356   0.343   0.342   0.371   0.375   0.385   0.401   0.399   0.394   0.388   0.409   0.404   0.413   0.412   0.417   0.420   0.402   0.415   0.408   0.401   0.406   0.423   0.433   0.421   0.428   0.450   0.456   0.418   0.414   0.420   0.409   0.381   0.396   0.404

   Height   Standard deviation at grid points for the w component:
   168.40    0.228   0.229   0.233   0.224   0.227   0.225   0.226   0.222   0.221   0.222   0.221   0.223   0.233   0.227   0.231   0.229   0.236   0.236   0.238   0.232   0.227   0.223   0.222   0.228   0.221   0.231   0.237   0.235   0.238   0.230   0.237   0.234   0.237   0.230   0.228
   163.75    0.228   0.227   0.239   0.234   0.238   0.229   0.217   0.218   0.222   0.221   0.217   0.222   0.230   0.230   0.224   0.237   0.236   0.239   0.232   0.233   0.232   0.227   0.228   0.229   0.228   0.225   0.234   0.234   0.234   0.236   0.233   0.226   0.230   0.230   0.235
   159.10    0.223   0.227   0.231   0.231   0.235   0.222   0.219   0.213   0.221   0.223   0.220   0.227   0.220   0.234   0.230   0.229   0.236   0.246   0.238   0.230   0.228   0.223   0.231   0.234   0.235   0.230   0.234   0.235   0.226   0.238   0.228   0.226   0.231   0.232   0.231
   154.45    0.220   0.220   0.222   0.226   0.230   0.223   0.221   0.215   0.213   0.222   0.222   0.227   0.222   0.228   0.227   0.226   0.238   0.238   0.235   0.225   0.220   0.222   0.228   0.232   0.231   0.234   0.227   0.232   0.225   0.233   0.244   0.234   0.230   0.227   0.228
   149.80    0.216   0.214   0.221   0.222   0.215   0.221   0.224   0.217   0.219   0.215   0.223   0.229   0.230   0.226   0.227   0.225   0.235   0.220   0.227   0.225   0.223   0.217   0.229   0.230   0.231   0.229   0.229   0.231   0.226   0.239   0.242   0.240   0.236   0.231   0.232
   145.15    0.229   0.224   0.219   0.214   0.209   0.215   0.220   0.224   0.226   0.219   0.218   0.219   0.230   0.231   0.228   0.225   0.230   0.223   0.226   0.225   0.224   0.222   0.228   0.229   0.228   0.224   0.231   0.229   0.229   0.233   0.241   0.232   0.234   0.243   0.233
   140.50    0.224   0.226   0.222   0.210   0.212   0.212   0.225   0.227   0.225   0.222   0.219   0.220   0.228   0.229   0.228   0.225   0.225   0.224   0.221   0.219   0.221   0.212   0.223   0.217   0.223   0.219   0.223   0.235   0.231   0.237   0.241   0.239   0.233   0.239   0.239
   135.85    0.232   0.223   0.221   0.215   0.213   0.217   0.223   0.232   0.223   0.224   0.217   0.218   0.226   0.229   0.230   0.230   0.218   0.223   0.220   0.210   0.213   0.219   0.220   0.222   0.223   0.232   0.224   0.229   0.227   0.231   0.234   0.235   0.232   0.230   0.238
   131.20    0.223   0.220   0.222   0.222   0.227   0.214   0.223   0.221   0.217   0.217   0.222   0.222   0.231   0.229   0.231   0.225   0.215   0.218   0.219   0.209   0.206   0.215   0.212   0.216   0.222   0.224   0.224   0.220   0.224   0.226   0.227   0.223   0.222   0.228   0.236
   126.55    0.221   0.223   0.228   0.230   0.227   0.219   0.227   0.219   0.226   0.226   0.229   0.226   0.229   0.228   0.222   0.226   0.224   0.216   0.209   0.209   0.212   0.213   0.219   0.220   0.217   0.215   0.222   0.231   0.222   0.225   0.229   0.231   0.222   0.227   0.228
   121.90    0.221   0.229   0.223   0.230   0.227   0.225   0.225   0.217   0.225   0.221   0.223   0.232   0.222   0.226   0.225   0.222   0.222   0.223   0.217   0.219   0.212   0.211   0.217   0.230   0.223   0.221   0.235   0.230   0.234   0.230   0.231   0.227   0.231   0.229   0.222
   117.25    0.220   0.220   0.226   0.225   0.226   0.223   0.213   0.218   0.219   0.232   0.229   0.225   0.225   0.227   0.219   0.216   0.226   0.231   0.218   0.218   0.214   0.221   0.220   0.224   0.225   0.221   0.221   0.230   0.234   0.231   0.232   0.226   0.231   0.231   0.225
   112.60    0.221   0.213   0.220   0.213   0.220   0.225   0.218   0.216   0.221   0.229   0.235   0.237   0.223   0.227   0.220   0.224   0.222   0.223   0.221   0.216   0.214   0.219   0.218   0.229   0.229   0.225   0.233   0.229   0.220   0.226   0.223   0.225   0.236   0.231   0.228
   107.95    0.218   0.209   0.210   0.209   0.217   0.220   0.217   0.215   0.230   0.230   0.227   0.229   0.230   0.224   0.222   0.226   0.220   0.219   0.218   0.222   0.225   0.219   0.225   0.227   0.235   0.229   0.229   0.221   0.213   0.215   0.213   0.222   0.232   0.230   0.229
   103.30    0.216   0.210   0.215   0.218   0.217   0.220   0.216   0.215   0.227   0.224   0.220   0.226   0.228   0.226   0.227   0.220   0.217   0.227   0.222   0.224   0.227   0.231   0.226   0.229   0.229   0.232   0.224   0.220   0.213   0.213   0.216   0.215   0.225   0.228   0.235
    98.65    0.218   0.220   0.221   0.225   0.217   0.220   0.216   0.224   0.224   0.223   0.217   0.227   0.232   0.232   0.229   0.221   0.217   0.225   0.222   0.222   0.233   0.231   0.221   0.228   0.220   0.225   0.221   0.223   0.222   0.215   0.213   0.218   0.221   0.232   0.237
    94.00    0.220   0.213   0.214   0.227   0.226   0.215   0.223   0.225   0.233   0.226   0.213   0.221   0.231   0.224   0.225   0.222   0.225   0.227   0.223   0.223   0.226   0.223   0.219   0.221   0.221   0.221   0.223   0.220   0.208   0.210   0.215   0.221   0.221   0.226   0.229
    89.35    0.213   0.218   0.217   0.217   0.225   0.223   0.230   0.227   0.224   0.223   0.223   0.225   0.227   0.227   0.217   0.218   0.222   0.216   0.224   0.224   0.227   0.220   0.225   0.223   0.227   0.228   0.225   0.223   0.218   0.219   0.215   0.220   0.221   0.221   0.233
    84.70    0.223   0.223   0.223   0.221   0.222   0.220   0.228   0.229   0.228   0.226   0.226   0.231   0.225   0.219   0.214   0.215   0.229   0.228   0.225   0.219   0.225   0.228   0.221   0.230   0.225   0.220   0.222   0.217   0.227   0.218   0.225   0.224   0.237   0.237   0.231
    80.05    0.229   0.228   0.226   0.221   0.217   0.217   0.225   0.231   0.233   0.235   0.233   0.222   0.220   0.216   0.217   0.217   0.228   0.228   0.217   0.226   0.220   0.224   0.223   0.228   0.232   0.226   0.226   0.227   0.229   0.217   0.222   0.226   0.232   0.238   0.230
    75.40    0.219   0.225   0.223   0.222   0.221   0.223   0.230   0.232   0.233   0.231   0.225   0.227   0.224   0.219   0.218   0.221   0.225   0.221   0.228   0.224   0.218   0.223   0.212   0.217   0.228   0.228   0.227   0.223   0.224   0.220   0.227   0.234   0.239   0.232   0.233
    70.75    0.224   0.220   0.224   0.221   0.232   0.229   0.228   0.227   0.228   0.232   0.231   0.215   0.209   0.210   0.220   0.216   0.219   0.226   0.226   0.224   0.223   0.226   0.220   0.222   0.218   0.226   0.227   0.220   0.228   0.230   0.232   0.234   0.228   0.230   0.233
    66.10    0.215   0.222   0.223   0.228   0.242   0.233   0.228   0.225   0.226   0.225   0.229   0.223   0.211   0.213   0.211   0.208   0.217   0.224   0.224   0.230   0.229   0.223   0.221   0.216   0.230   0.226   0.226   0.231   0.230   0.230   0.239   0.240   0.240   0.238   0.235
    61.45    0.218   0.220   0.226   0.236   0.239   0.242   0.233   0.226   0.226   0.221   0.224   0.220   0.219   0.213   0.213   0.222   0.222   0.225   0.229   0.230   0.223   0.220   0.219   0.228   0.223   0.226   0.230   0.232   0.237   0.235   0.237   0.232   0.233   0.233   0.230
    56.80    0.221   0.224   0.233   0.233   0.233   0.250   0.245   0.237   0.235   0.228   0.224   0.225   0.223   0.219   0.222   0.218   0.218   0.228   0.224   0.219   0.226   0.224   0.217   0.223   0.219   0.227   0.231   0.229   0.229   0.228   0.234   0.244   0.233   0.234   0.228
    52.15    0.232   0.232   0.225   0.233   0.234   0.242   0.243   0.243   0.238   0.229   0.225   0.218   0.221   0.221   0.221   0.215   0.221   0.221   0.226   0.229   0.225   0.224   0.219   0.218   0.225   0.231   0.229   0.231   0.232   0.238   0.235   0.230   0.235   0.220   0.224
    47.50    0.232   0.233   0.230   0.227   0.230   0.235   0.236   0.232   0.234   0.229   0.223   0.216   0.216   0.217   0.218   0.227   0.227   0.217   0.222   0.227   0.222   0.227   0.219   0.224   0.227   0.232   0.228   0.237   0.239   0.233   0.232   0.224   0.229   0.228   0.231
    42.85    0.232   0.223   0.227   0.222   0.220   0.232   0.234   0.228   0.230   0.230   0.218   0.215   0.215   0.213   0.224   0.232   0.217   0.221   0.226   0.220   0.222   0.226   0.220   0.227   0.233   0.229   0.229   0.230   0.231   0.232   0.230   0.231   0.234   0.231   0.227
    38.20    0.224   0.223   0.228   0.227   0.219   0.232   0.227   0.225   0.222   0.227   0.218   0.215   0.210   0.217   0.223   0.226   0.226   0.215   0.219   0.220   0.220   0.218   0.221   0.228   0.228   0.233   0.231   0.233   0.219   0.228   0.228   0.225   0.231   0.229   0.225
    33.55    0.221   0.220   0.228   0.225   0.223   0.226   0.231   0.227   0.221   0.217   0.229   0.217   0.212   0.216   0.221   0.218   0.228   0.217   0.223   0.219   0.214   0.219   0.223   0.222   0.224   0.225   0.231   0.227   0.223   0.225   0.227   0.222   0.230   0.230   0.225
    28.90    0.222   0.223   0.222   0.226   0.224   0.232   0.233   0.230   0.216   0.217   0.219   0.222   0.228   0.219   0.216   0.213   0.222   0.228   0.224   0.223   0.217   0.223   0.229   0.219   0.213   0.219   0.224   0.217   0.221   0.214   0.225   0.217   0.223   0.230   0.229
    24.25    0.216   0.225   0.223   0.224   0.225   0.233   0.233   0.228   0.220   0.216   0.213   0.215   0.222   0.220   0.215   0.216   0.214   0.228   0.226   0.220   0.223   0.221   0.221   0.217   0.223   0.225   0.219   0.221   0.221   0.222   0.223   0.215   0.222   0.223   0.229
    19.60    0.224   0.220   0.223   0.221   0.211   0.218   0.225   0.218   0.215   0.214   0.210   0.212   0.217   0.216   0.206   0.219   0.216   0.223   0.220   0.217   0.227   0.217   0.221   0.216   0.218   0.220   0.219   0.221   0.221   0.214   0.218   0.216   0.223   0.215   0.226
    14.95    0.223   0.221   0.223   0.214   0.216   0.227   0.225   0.211   0.216   0.212   0.212   0.213   0.215   0.218   0.205   0.210   0.212   0.212   0.217   0.216   0.218   0.216   0.222   0.225   0.221   0.216   0.216   0.214   0.218   0.212   0.219   0.222   0.224   0.222   0.219
    10.30    0.219   0.220   0.224   0.217   0.218   0.222   0.218   0.218   0.223   0.222   0.219   0.217   0.220   0.210   0.205   0.210   0.213   0.222   0.223   0.226   0.226   0.224   0.216   0.220   0.222   0.228   0.216   0.212   0.212   0.211   0.221   0.219   0.220   0.228   0.215
     5.65    0.220   0.217   0.220   0.215   0.211   0.216   0.212   0.219   0.223   0.233   0.232   0.221   0.214   0.218   0.214   0.217   0.221   0.225   0.220   0.234   0.225   0.226   0.214   0.224   0.230   0.223   0.221   0.214   0.216   0.215   0.216   0.217   0.213   0.222   0.225
     1.00    0.223   0.213   0.215   0.212   0.209   0.217   0.218   0.225   0.225   0.222   0.226   0.213   0.212   0.223   0.214   0.215   0.217   0.229   0.227   0.222   0.218   0.215   0.216   0.220   0.230   0.227   0.223   0.221   0.219   0.215   0.219   0.221   0.217   0.216   0.215

   Mean standard deviation across all grid points:
      u component:    0.431 m/s
      v component:    0.396 m/s
      w component:    0.224 m/s


U-component (X) statistics from the interpolated hub point:

   Mean =   9.9913 m/s
   TI   =   4.3479 %


Processing complete.  6067.9 CPU seconds used.
