
This summary file was generated by TurbSim (from OpenFAST-v3.5.3) on 20-Apr-2025 at 10:50:47.


Runtime Options:

-228636811  Random seed #1
    RANLUX  Type of random number generator
         F  Output binary HH turbulence parameters?
         F  Output formatted turbulence parameters?
         F  Output AeroDyn HH files?
         T  Output AeroDyn FF files?
         F  Output BLADED FF files?
         F  Output tower data?
         F  Output HAWC FF files?
         F  Output formatted FF files?
         T  Output coherent turbulence time step file?
 0 -  NONE  IEC turbulence models scaled to exact specified standard deviation


Turbine/Model Specifications:

        37  Vertical grid-point matrix dimension
        35  Horizontal grid-point matrix dimension
     0.250  Time step [seconds]
   900.000  Analysis time [seconds]
   900.000  Usable output time [seconds]
    89.350  Hub height [m]
   167.400  Grid height [m]
   158.100  Grid width [m]
     0.000  Vertical flow angle [degrees]
     0.000  Horizontal flow angle [degrees]


Meteorological Boundary Conditions:

    TIMESR  User-input time series spectral model
       N/A  IEC standard
       N/A  IEC turbulence characteristic
       N/A  IEC turbulence type
       N/A  IEC Extreme Turbulence Model (ETM) "c" parameter [m/s]
       PL   Wind profile type
    90.000  Reference height [m]
    10.000  Reference wind speed [m/s]
       N/A  Jet height [m]
     0.120  Power law exponent
     0.030  Surface roughness length [m]


Non-IEC Meteorological Boundary Conditions:

    45.000  Site latitude [degrees]
     0.050  Gradient Richardson number
     0.480  Friction or shear velocity [m/s]
       N/A  Mixing layer depth [m]
       N/A  Mean hub u'w' Reynolds stress
       N/A  Mean hub u'v' Reynolds stress
       N/A  Mean hub v'w' Reynolds stress


Spatial Coherence Models:

       IEC  u-component coherence model
       IEC  v-component coherence model
       IEC  w-component coherence model
(   12.000, 0.353E-03)  u-component coherence parameters
(   12.000, 0.353E-03)  v-component coherence parameters
(   12.000, 0.353E-03)  w-component coherence parameters
       N/A  Coherence exponent


Coherent Turbulence Scaling Parameters:

.\EventData
            Name of the path containing the coherent turbulence data files
       les  Type of coherent turbulence data files
     1.000  Disturbance scale (ratio of wave height to rotor diameter)
     0.500  Fractional location of tower centerline from right
     0.500  Fractional location of hub height from the bottom of the dataset
    30.000  Minimum start time for coherent structures [seconds]


Profiles from User-Defined Time-Series Input:

  Height   Wind Speed   Horizontal Angle   Vertical Angle
   (m)        (m/s)          (deg)              (deg)    
  ------   ----------   ----------------   --------------
   94.00      10.00          -0.63                0.00


You have requested that the following file(s) be generated:

   /kfs3/scratch/agupta/Projects/RL_Incubator/FinalRuns_Veer/Seed4/./FFSim_Seed4/Cond00_v10.0_PL0.12_TI6.0/Case3_wdirp06/Seed_1/TurbSim/HighT7.bts (AeroDyn/TurbSim full-field wind file)


Turbulence Simulation Scaling Parameter Summary:

   Turbulence model used                            =  User-input time series
   Gradient Richardson number                       =    0.050
   Monin-Obukhov (M-O) z/L parameter                =    0.067
   Monin-Obukhov (M-O) length scale                 = 1340.250 m
   Mean wind speed at hub height                    =    9.991 m/s

   Wind profile type                                =  Power law
   Power law exponent                               =    0.120
   Mean shear across rotor disk                     =    0.019 (m/s)/m
   Assumed rotor diameter                           =  158.100 m
   Surface roughness length                         =    0.030 m

   Nyquist frequency of turbulent wind field        =    2.000 Hz

   Number of time steps in the FFT                  =     3600
   Number of time steps output                      =     3600
   Number of points simulated                       =     1296


Mean Flow Angles:

   Vertical   =   0.0 degrees
   Horizontal =   0.0 degrees

Mean Wind Speed Profile:

   Height    Wind Speed   Horizontal Angle  Vertical Angle  U-comp (X)   V-comp (Y)   W-comp (Z)
     (m)        (m/s)         (degrees)       (degrees)       (m/s)        (m/s)        (m/s)   
   ------    ----------   ----------------  --------------  ----------   ----------   ----------
    168.4       10.78            0.00            0.00         10.78         0.00         0.00
    163.7       10.74            0.00            0.00         10.74         0.00         0.00
    159.1       10.71            0.00            0.00         10.71         0.00         0.00
    154.4       10.67            0.00            0.00         10.67         0.00         0.00
    149.8       10.63            0.00            0.00         10.63         0.00         0.00
    145.1       10.59            0.00            0.00         10.59         0.00         0.00
    140.5       10.55            0.00            0.00         10.55         0.00         0.00
    135.8       10.51            0.00            0.00         10.51         0.00         0.00
    131.2       10.46            0.00            0.00         10.46         0.00         0.00
    126.5       10.42            0.00            0.00         10.42         0.00         0.00
    121.9       10.37            0.00            0.00         10.37         0.00         0.00
    117.2       10.32            0.00            0.00         10.32         0.00         0.00
    112.6       10.27            0.00            0.00         10.27         0.00         0.00
    107.9       10.22            0.00            0.00         10.22         0.00         0.00
    103.3       10.17            0.00            0.00         10.17         0.00         0.00
     98.6       10.11            0.00            0.00         10.11         0.00         0.00
     94.0       10.05            0.00            0.00         10.05         0.00         0.00
     89.3        9.99            0.00            0.00          9.99         0.00         0.00
     84.7        9.93            0.00            0.00          9.93         0.00         0.00
     80.0        9.86            0.00            0.00          9.86         0.00         0.00
     75.4        9.79            0.00            0.00          9.79         0.00         0.00
     70.7        9.72            0.00            0.00          9.72         0.00         0.00
     66.1        9.64            0.00            0.00          9.64         0.00         0.00
     61.4        9.55            0.00            0.00          9.55         0.00         0.00
     56.8        9.46            0.00            0.00          9.46         0.00         0.00
     52.1        9.37            0.00            0.00          9.37         0.00         0.00
     47.5        9.26            0.00            0.00          9.26         0.00         0.00
     42.8        9.15            0.00            0.00          9.15         0.00         0.00
     38.2        9.02            0.00            0.00          9.02         0.00         0.00
     33.5        8.88            0.00            0.00          8.88         0.00         0.00
     28.9        8.73            0.00            0.00          8.73         0.00         0.00
     24.2        8.54            0.00            0.00          8.54         0.00         0.00
     19.6        8.33            0.00            0.00          8.33         0.00         0.00
     14.9        8.06            0.00            0.00          8.06         0.00         0.00
     10.3        7.71            0.00            0.00          7.71         0.00         0.00
      5.6        7.17            0.00            0.00          7.17         0.00         0.00
      1.0        5.83            0.00            0.00          5.83         0.00         0.00


Harvested Random Seeds after Generation of the Random Numbers:

     65026800 K 1
            0 K 2


Hub-Height Simulated Turbulence Statistical Summary:

   Type of Wind        Min (m/s)   Mean (m/s)    Max (m/s)  Sigma (m/s)       TI (%)
   ----------------    ---------   ----------    ---------  -----------       ------
   Longitudinal (u)         8.18         9.99        11.69        0.535        5.356
   Lateral (v)             -1.39         0.00         1.64        0.486        4.861
   Vertical (w)            -0.89        -0.00         0.98        0.276        2.760
   U component              8.18         9.99        11.69        0.535        5.356
   V component             -1.39         0.00         1.64        0.486        4.861
   W component             -0.89        -0.00         0.98        0.276        2.760
   Horizontal (U&V)         8.18        10.00        11.69        0.534        5.336
   Total                    8.18        10.01        11.70        0.534        5.333

                       Min Reynolds     Mean Reynolds    Max Reynolds    Correlation
   Product             Stress (m/s)^2   Stress (m/s)^2   Stress (m/s)^2  Coefficient
   ----------------    --------------   --------------   --------------  -----------
   u'w'                     -0.862             0.003             0.904         0.020
   u'v'                     -1.788            -0.026             1.043        -0.100
   v'w'                     -0.555            -0.007             0.908        -0.052


   Friction Velocity (Ustar)  =      0.054 m/s
   Maximum Instantaneous TKE  =      1.965 (m/s)^2
   Maximum Instantaneous CTKE =      0.897 (m/s)^2


Grid Point Variance Summary:

   Y-coord  -79.05  -74.40  -69.75  -65.10  -60.45  -55.80  -51.15  -46.50  -41.85  -37.20  -32.55  -27.90  -23.25  -18.60  -13.95   -9.30   -4.65    0.00    4.65    9.30   13.95   18.60   23.25   27.90   32.55   37.20   41.85   46.50   51.15   55.80   60.45   65.10   69.75   74.40   79.05

   Height   Standard deviation at grid points for the u component:
   168.40    0.468   0.449   0.488   0.505   0.489   0.448   0.478   0.490   0.493   0.519   0.585   0.604   0.584   0.575   0.567   0.532   0.483   0.507   0.458   0.491   0.494   0.497   0.495   0.527   0.489   0.495   0.508   0.500   0.545   0.549   0.567   0.539   0.551   0.548   0.570
   163.75    0.453   0.445   0.475   0.472   0.477   0.444   0.468   0.460   0.502   0.520   0.559   0.540   0.538   0.517   0.543   0.505   0.506   0.476   0.483   0.496   0.514   0.505   0.489   0.506   0.492   0.494   0.507   0.504   0.533   0.530   0.537   0.519   0.515   0.567   0.591
   159.10    0.452   0.445   0.466   0.462   0.495   0.469   0.471   0.469   0.481   0.517   0.553   0.511   0.496   0.493   0.516   0.493   0.487   0.475   0.479   0.492   0.466   0.486   0.476   0.508   0.483   0.527   0.488   0.471   0.497   0.496   0.514   0.527   0.512   0.558   0.593
   154.45    0.455   0.437   0.440   0.459   0.504   0.482   0.470   0.465   0.458   0.485   0.505   0.546   0.543   0.529   0.508   0.513   0.486   0.489   0.471   0.473   0.486   0.458   0.462   0.486   0.505   0.496   0.496   0.509   0.485   0.496   0.507   0.504   0.545   0.586   0.580
   149.80    0.477   0.467   0.505   0.450   0.463   0.468   0.493   0.485   0.445   0.466   0.522   0.517   0.512   0.520   0.513   0.524   0.490   0.491   0.476   0.472   0.492   0.479   0.492   0.480   0.503   0.479   0.463   0.480   0.440   0.474   0.463   0.509   0.513   0.552   0.581
   145.15    0.473   0.459   0.465   0.497   0.471   0.491   0.505   0.492   0.486   0.500   0.499   0.540   0.536   0.518   0.495   0.504   0.484   0.498   0.506   0.471   0.512   0.488   0.511   0.540   0.501   0.516   0.462   0.445   0.461   0.455   0.496   0.518   0.544   0.557   0.582
   140.50    0.466   0.447   0.462   0.474   0.479   0.509   0.507   0.483   0.463   0.443   0.472   0.502   0.538   0.528   0.532   0.521   0.487   0.526   0.533   0.527   0.528   0.554   0.539   0.576   0.562   0.528   0.476   0.464   0.471   0.509   0.535   0.523   0.537   0.515   0.542
   135.85    0.463   0.486   0.480   0.459   0.479   0.471   0.463   0.451   0.452   0.469   0.475   0.488   0.524   0.503   0.515   0.506   0.499   0.511   0.548   0.553   0.538   0.558   0.530   0.568   0.553   0.544   0.524   0.503   0.496   0.517   0.555   0.604   0.554   0.519   0.542
   131.20    0.454   0.456   0.450   0.453   0.470   0.423   0.445   0.446   0.462   0.504   0.527   0.515   0.538   0.515   0.544   0.532   0.549   0.524   0.500   0.517   0.510   0.536   0.532   0.540   0.572   0.607   0.540   0.548   0.532   0.532   0.582   0.614   0.587   0.573   0.530
   126.55    0.431   0.428   0.451   0.453   0.471   0.485   0.486   0.463   0.488   0.499   0.547   0.572   0.569   0.578   0.572   0.551   0.566   0.555   0.530   0.526   0.535   0.531   0.504   0.581   0.608   0.618   0.563   0.543   0.554   0.559   0.565   0.581   0.539   0.578   0.547
   121.90    0.450   0.448   0.485   0.451   0.479   0.503   0.478   0.482   0.494   0.536   0.513   0.544   0.572   0.581   0.554   0.543   0.550   0.555   0.550   0.565   0.566   0.599   0.562   0.561   0.579   0.592   0.572   0.562   0.566   0.545   0.546   0.548   0.552   0.553   0.573
   117.25    0.425   0.435   0.464   0.468   0.446   0.469   0.468   0.494   0.508   0.494   0.490   0.529   0.555   0.578   0.554   0.548   0.548   0.592   0.595   0.553   0.534   0.563   0.571   0.529   0.563   0.551   0.574   0.547   0.549   0.555   0.576   0.617   0.611   0.617   0.599
   112.60    0.439   0.448   0.453   0.469   0.454   0.461   0.479   0.507   0.492   0.524   0.519   0.556   0.567   0.541   0.558   0.589   0.567   0.575   0.537   0.520   0.516   0.569   0.549   0.547   0.521   0.547   0.560   0.529   0.579   0.555   0.582   0.605   0.586   0.602   0.559
   107.95    0.471   0.489   0.484   0.493   0.476   0.465   0.490   0.470   0.474   0.513   0.547   0.537   0.522   0.556   0.596   0.595   0.596   0.562   0.512   0.475   0.499   0.558   0.554   0.564   0.534   0.515   0.504   0.530   0.590   0.567   0.575   0.613   0.587   0.596   0.580
   103.30    0.463   0.491   0.491   0.508   0.503   0.457   0.457   0.488   0.464   0.485   0.493   0.565   0.547   0.563   0.596   0.572   0.575   0.546   0.515   0.502   0.512   0.518   0.509   0.509   0.516   0.498   0.468   0.521   0.553   0.556   0.576   0.582   0.593   0.561   0.589
    98.65    0.483   0.486   0.532   0.529   0.523   0.468   0.478   0.496   0.501   0.518   0.527   0.573   0.593   0.611   0.620   0.600   0.570   0.556   0.520   0.504   0.487   0.498   0.462   0.502   0.508   0.483   0.487   0.522   0.521   0.503   0.524   0.510   0.539   0.542   0.560
    94.00    0.492   0.513   0.544   0.553   0.537   0.550   0.536   0.508   0.500   0.518   0.561   0.578   0.610   0.618   0.602   0.593   0.558   0.573   0.513   0.517   0.515   0.462   0.469   0.509   0.517   0.490   0.509   0.510   0.519   0.505   0.477   0.487   0.513   0.511   0.539
    89.35    0.458   0.498   0.522   0.553   0.562   0.544   0.574   0.552   0.522   0.537   0.566   0.616   0.628   0.606   0.607   0.579   0.539   0.535   0.528   0.515   0.543   0.499   0.483   0.517   0.518   0.493   0.509   0.501   0.461   0.456   0.495   0.494   0.503   0.488   0.496
    84.70    0.466   0.481   0.533   0.575   0.588   0.595   0.583   0.550   0.528   0.543   0.596   0.594   0.616   0.592   0.557   0.590   0.528   0.538   0.547   0.543   0.538   0.504   0.517   0.509   0.520   0.490   0.504   0.479   0.491   0.472   0.468   0.480   0.493   0.491   0.468
    80.05    0.484   0.509   0.503   0.561   0.577   0.559   0.554   0.595   0.566   0.618   0.601   0.584   0.630   0.659   0.578   0.586   0.533   0.507   0.539   0.512   0.510   0.546   0.529   0.498   0.516   0.491   0.474   0.454   0.484   0.485   0.452   0.480   0.488   0.510   0.500
    75.40    0.532   0.536   0.530   0.532   0.544   0.597   0.606   0.575   0.614   0.641   0.626   0.615   0.679   0.671   0.638   0.589   0.545   0.528   0.523   0.539   0.525   0.534   0.543   0.542   0.501   0.485   0.485   0.497   0.460   0.489   0.475   0.489   0.493   0.498   0.491
    70.75    0.541   0.558   0.612   0.582   0.546   0.579   0.566   0.575   0.596   0.598   0.599   0.614   0.676   0.674   0.634   0.645   0.584   0.587   0.562   0.528   0.537   0.550   0.567   0.524   0.511   0.484   0.505   0.511   0.469   0.493   0.487   0.492   0.484   0.469   0.484
    66.10    0.546   0.543   0.550   0.562   0.572   0.553   0.566   0.537   0.591   0.580   0.586   0.614   0.627   0.621   0.615   0.609   0.626   0.582   0.549   0.521   0.559   0.575   0.590   0.541   0.528   0.493   0.469   0.514   0.517   0.536   0.524   0.486   0.470   0.480   0.459
    61.45    0.578   0.536   0.527   0.555   0.557   0.526   0.514   0.531   0.580   0.574   0.549   0.587   0.593   0.560   0.560   0.564   0.601   0.606   0.578   0.506   0.541   0.562   0.551   0.546   0.543   0.521   0.484   0.503   0.503   0.521   0.513   0.508   0.483   0.509   0.504
    56.80    0.568   0.547   0.532   0.528   0.540   0.544   0.524   0.571   0.568   0.569   0.578   0.587   0.558   0.565   0.530   0.575   0.560   0.583   0.546   0.525   0.524   0.528   0.543   0.532   0.563   0.543   0.498   0.520   0.529   0.547   0.517   0.537   0.524   0.511   0.490
    52.15    0.563   0.580   0.561   0.536   0.533   0.535   0.549   0.551   0.537   0.531   0.543   0.515   0.539   0.514   0.551   0.560   0.566   0.573   0.564   0.526   0.568   0.525   0.549   0.537   0.535   0.498   0.521   0.527   0.510   0.518   0.530   0.517   0.548   0.513   0.495
    47.50    0.600   0.599   0.575   0.553   0.539   0.546   0.525   0.514   0.500   0.494   0.493   0.527   0.507   0.511   0.529   0.564   0.562   0.577   0.537   0.543   0.580   0.524   0.540   0.531   0.513   0.522   0.546   0.531   0.508   0.534   0.551   0.506   0.520   0.534   0.514
    42.85    0.612   0.610   0.589   0.581   0.563   0.589   0.536   0.484   0.498   0.494   0.497   0.518   0.514   0.518   0.522   0.553   0.564   0.541   0.569   0.563   0.543   0.544   0.518   0.514   0.523   0.537   0.542   0.536   0.545   0.507   0.526   0.530   0.517   0.500   0.510
    38.20    0.583   0.615   0.601   0.593   0.578   0.562   0.555   0.536   0.478   0.492   0.482   0.484   0.512   0.548   0.562   0.574   0.544   0.551   0.546   0.554   0.536   0.517   0.526   0.533   0.499   0.533   0.554   0.556   0.542   0.524   0.518   0.529   0.478   0.507   0.519
    33.55    0.647   0.588   0.611   0.582   0.572   0.553   0.535   0.541   0.536   0.497   0.502   0.518   0.498   0.557   0.600   0.570   0.537   0.559   0.531   0.512   0.529   0.540   0.518   0.556   0.537   0.543   0.548   0.542   0.541   0.523   0.514   0.508   0.511   0.499   0.506
    28.90    0.625   0.598   0.592   0.602   0.602   0.540   0.512   0.530   0.534   0.533   0.510   0.531   0.565   0.571   0.589   0.557   0.546   0.526   0.535   0.502   0.524   0.506   0.478   0.504   0.537   0.532   0.549   0.536   0.532   0.551   0.539   0.529   0.507   0.505   0.495
    24.25    0.639   0.641   0.607   0.602   0.568   0.560   0.514   0.546   0.543   0.554   0.538   0.560   0.589   0.553   0.549   0.566   0.540   0.517   0.510   0.511   0.492   0.498   0.515   0.491   0.529   0.543   0.539   0.527   0.513   0.546   0.492   0.486   0.487   0.503   0.488
    19.60    0.637   0.622   0.592   0.620   0.581   0.568   0.544   0.585   0.540   0.487   0.526   0.537   0.536   0.558   0.540   0.554   0.534   0.475   0.506   0.512   0.523   0.513   0.477   0.534   0.527   0.543   0.552   0.530   0.527   0.549   0.538   0.506   0.502   0.508   0.489
    14.95    0.652   0.652   0.654   0.610   0.595   0.561   0.568   0.586   0.584   0.519   0.532   0.558   0.555   0.558   0.529   0.527   0.513   0.492   0.516   0.516   0.491   0.520   0.530   0.532   0.555   0.552   0.536   0.524   0.565   0.579   0.553   0.530   0.516   0.496   0.505
    10.30    0.630   0.615   0.618   0.581   0.603   0.602   0.567   0.553   0.547   0.527   0.502   0.550   0.539   0.550   0.528   0.514   0.480   0.520   0.510   0.524   0.509   0.504   0.512   0.530   0.557   0.573   0.548   0.518   0.577   0.564   0.519   0.502   0.557   0.522   0.559
     5.65    0.603   0.598   0.651   0.589   0.585   0.575   0.547   0.537   0.505   0.476   0.518   0.540   0.539   0.521   0.508   0.531   0.525   0.524   0.502   0.506   0.516   0.481   0.508   0.550   0.539   0.586   0.578   0.527   0.550   0.541   0.551   0.536   0.547   0.569   0.548
     1.00    0.601   0.601   0.633   0.593   0.553   0.545   0.556   0.516   0.531   0.530   0.518   0.501   0.486   0.506   0.516   0.527   0.540   0.530   0.494   0.499   0.506   0.525   0.520   0.536   0.546   0.570   0.529   0.516   0.552   0.560   0.566   0.581   0.547   0.549   0.570

   Height   Standard deviation at grid points for the v component:
   168.40    0.455   0.466   0.466   0.468   0.488   0.493   0.504   0.499   0.481   0.501   0.489   0.498   0.502   0.455   0.454   0.465   0.483   0.474   0.468   0.445   0.471   0.477   0.475   0.464   0.475   0.492   0.523   0.510   0.509   0.514   0.480   0.483   0.502   0.507   0.506
   163.75    0.451   0.459   0.460   0.507   0.515   0.497   0.496   0.488   0.479   0.491   0.495   0.512   0.495   0.484   0.462   0.472   0.467   0.472   0.467   0.445   0.449   0.465   0.479   0.471   0.472   0.526   0.483   0.492   0.504   0.495   0.479   0.502   0.507   0.483   0.486
   159.10    0.463   0.483   0.486   0.485   0.480   0.505   0.493   0.495   0.487   0.513   0.472   0.500   0.522   0.497   0.485   0.482   0.484   0.453   0.448   0.472   0.449   0.452   0.458   0.468   0.475   0.492   0.500   0.481   0.507   0.492   0.480   0.482   0.488   0.500   0.472
   154.45    0.476   0.516   0.495   0.487   0.489   0.525   0.496   0.492   0.497   0.511   0.509   0.523   0.501   0.498   0.475   0.484   0.473   0.463   0.450   0.476   0.482   0.474   0.473   0.480   0.475   0.515   0.518   0.495   0.505   0.484   0.479   0.508   0.500   0.475   0.448
   149.80    0.510   0.526   0.505   0.488   0.501   0.509   0.474   0.497   0.512   0.511   0.519   0.524   0.485   0.511   0.507   0.503   0.499   0.455   0.461   0.441   0.473   0.469   0.483   0.478   0.476   0.492   0.508   0.513   0.504   0.501   0.481   0.490   0.475   0.481   0.455
   145.15    0.489   0.503   0.499   0.501   0.528   0.502   0.496   0.490   0.494   0.504   0.502   0.514   0.506   0.512   0.525   0.510   0.512   0.461   0.437   0.457   0.464   0.445   0.457   0.460   0.445   0.481   0.472   0.514   0.513   0.518   0.490   0.491   0.493   0.467   0.457
   140.50    0.485   0.519   0.516   0.520   0.503   0.483   0.504   0.499   0.496   0.509   0.504   0.508   0.510   0.514   0.548   0.546   0.515   0.493   0.483   0.484   0.466   0.465   0.471   0.466   0.447   0.454   0.456   0.492   0.492   0.501   0.498   0.508   0.493   0.483   0.468
   135.85    0.491   0.501   0.510   0.514   0.479   0.456   0.475   0.469   0.495   0.519   0.511   0.498   0.508   0.497   0.539   0.525   0.523   0.500   0.503   0.518   0.511   0.469   0.478   0.473   0.443   0.441   0.476   0.489   0.507   0.503   0.516   0.476   0.483   0.470   0.454
   131.20    0.514   0.488   0.492   0.503   0.475   0.448   0.445   0.459   0.477   0.494   0.493   0.504   0.520   0.530   0.530   0.515   0.507   0.510   0.510   0.500   0.506   0.493   0.461   0.462   0.463   0.473   0.483   0.482   0.476   0.495   0.500   0.500   0.490   0.492   0.483
   126.55    0.525   0.493   0.495   0.474   0.442   0.459   0.477   0.450   0.483   0.476   0.460   0.485   0.489   0.502   0.513   0.493   0.540   0.516   0.496   0.484   0.485   0.463   0.453   0.463   0.478   0.484   0.484   0.471   0.467   0.459   0.498   0.491   0.491   0.497   0.492
   121.90    0.499   0.477   0.482   0.475   0.445   0.446   0.458   0.472   0.487   0.469   0.453   0.458   0.446   0.486   0.506   0.514   0.521   0.514   0.478   0.492   0.461   0.450   0.457   0.442   0.464   0.486   0.493   0.455   0.464   0.477   0.486   0.502   0.504   0.493   0.501
   117.25    0.463   0.468   0.452   0.456   0.452   0.438   0.462   0.454   0.463   0.479   0.440   0.444   0.464   0.488   0.521   0.512   0.515   0.505   0.480   0.444   0.427   0.411   0.439   0.436   0.444   0.454   0.486   0.475   0.455   0.468   0.466   0.501   0.502   0.497   0.503
   112.60    0.477   0.467   0.424   0.459   0.445   0.458   0.448   0.446   0.441   0.466   0.456   0.459   0.469   0.491   0.478   0.499   0.502   0.469   0.453   0.452   0.433   0.427   0.426   0.444   0.441   0.442   0.444   0.465   0.482   0.453   0.462   0.491   0.504   0.512   0.469
   107.95    0.462   0.445   0.427   0.437   0.432   0.451   0.453   0.411   0.423   0.430   0.450   0.468   0.468   0.461   0.447   0.468   0.461   0.455   0.450   0.449   0.450   0.430   0.448   0.456   0.435   0.424   0.448   0.454   0.471   0.461   0.449   0.489   0.503   0.504   0.499
   103.30    0.456   0.460   0.454   0.458   0.460   0.451   0.445   0.439   0.451   0.446   0.455   0.471   0.469   0.462   0.464   0.468   0.465   0.462   0.453   0.450   0.442   0.418   0.439   0.452   0.435   0.457   0.434   0.455   0.466   0.451   0.442   0.451   0.483   0.500   0.510
    98.65    0.460   0.446   0.439   0.470   0.468   0.468   0.449   0.469   0.461   0.469   0.481   0.470   0.456   0.456   0.478   0.471   0.465   0.462   0.476   0.473   0.451   0.437   0.447   0.444   0.451   0.451   0.445   0.450   0.453   0.460   0.458   0.463   0.466   0.486   0.495
    94.00    0.454   0.470   0.466   0.467   0.472   0.459   0.446   0.464   0.462   0.475   0.462   0.472   0.471   0.477   0.473   0.466   0.486   0.486   0.480   0.458   0.426   0.442   0.429   0.440   0.440   0.456   0.455   0.447   0.441   0.436   0.464   0.447   0.486   0.479   0.497
    89.35    0.484   0.470   0.454   0.479   0.479   0.467   0.452   0.458   0.474   0.467   0.463   0.457   0.451   0.463   0.462   0.467   0.477   0.486   0.469   0.433   0.439   0.466   0.446   0.460   0.441   0.423   0.429   0.432   0.437   0.431   0.456   0.457   0.465   0.472   0.479
    84.70    0.484   0.469   0.487   0.472   0.469   0.459   0.465   0.472   0.469   0.437   0.433   0.425   0.461   0.452   0.468   0.455   0.461   0.452   0.465   0.451   0.437   0.437   0.432   0.454   0.430   0.430   0.424   0.428   0.432   0.429   0.428   0.439   0.441   0.449   0.469
    80.05    0.496   0.478   0.481   0.486   0.460   0.450   0.457   0.456   0.452   0.450   0.442   0.441   0.488   0.494   0.477   0.467   0.442   0.450   0.457   0.444   0.444   0.436   0.457   0.460   0.445   0.431   0.435   0.439   0.430   0.430   0.439   0.458   0.437   0.443   0.462
    75.40    0.498   0.503   0.493   0.491   0.463   0.445   0.425   0.449   0.431   0.450   0.458   0.476   0.491   0.474   0.471   0.447   0.470   0.467   0.448   0.478   0.457   0.455   0.474   0.484   0.483   0.446   0.449   0.425   0.431   0.414   0.423   0.442   0.433   0.466   0.445
    70.75    0.476   0.471   0.462   0.457   0.446   0.427   0.443   0.448   0.467   0.472   0.495   0.510   0.489   0.483   0.477   0.472   0.478   0.449   0.472   0.463   0.462   0.451   0.468   0.460   0.470   0.443   0.436   0.423   0.426   0.442   0.441   0.432   0.448   0.484   0.472
    66.10    0.481   0.477   0.475   0.430   0.449   0.431   0.430   0.448   0.455   0.468   0.480   0.498   0.465   0.465   0.484   0.480   0.469   0.470   0.467   0.451   0.457   0.455   0.463   0.445   0.441   0.433   0.417   0.422   0.441   0.452   0.463   0.460   0.463   0.495   0.500
    61.45    0.478   0.472   0.453   0.441   0.440   0.430   0.437   0.433   0.457   0.450   0.472   0.483   0.459   0.460   0.482   0.492   0.443   0.478   0.469   0.449   0.433   0.450   0.461   0.430   0.425   0.417   0.422   0.440   0.450   0.461   0.449   0.469   0.483   0.503   0.479
    56.80    0.495   0.469   0.474   0.448   0.452   0.430   0.428   0.423   0.425   0.432   0.447   0.464   0.455   0.475   0.477   0.483   0.465   0.465   0.470   0.455   0.475   0.455   0.441   0.440   0.407   0.419   0.447   0.443   0.457   0.479   0.463   0.496   0.503   0.484   0.455
    52.15    0.488   0.502   0.466   0.466   0.482   0.464   0.448   0.454   0.414   0.439   0.468   0.461   0.471   0.479   0.481   0.457   0.490   0.469   0.474   0.478   0.488   0.472   0.440   0.416   0.415   0.432   0.466   0.450   0.445   0.455   0.469   0.491   0.485   0.487   0.476
    47.50    0.482   0.485   0.473   0.491   0.492   0.467   0.455   0.452   0.442   0.443   0.429   0.461   0.475   0.496   0.504   0.488   0.491   0.476   0.464   0.464   0.462   0.477   0.430   0.386   0.411   0.429   0.461   0.460   0.468   0.461   0.460   0.467   0.486   0.480   0.444
    42.85    0.482   0.473   0.469   0.469   0.469   0.448   0.446   0.451   0.444   0.421   0.434   0.442   0.459   0.464   0.485   0.501   0.478   0.477   0.485   0.465   0.466   0.464   0.443   0.424   0.414   0.443   0.432   0.435   0.484   0.473   0.465   0.482   0.477   0.460   0.444
    38.20    0.450   0.451   0.485   0.491   0.466   0.468   0.458   0.429   0.454   0.421   0.460   0.451   0.476   0.483   0.497   0.509   0.514   0.468   0.468   0.477   0.451   0.461   0.468   0.430   0.446   0.433   0.447   0.443   0.455   0.437   0.444   0.472   0.475   0.464   0.470
    33.55    0.466   0.473   0.488   0.491   0.480   0.509   0.476   0.474   0.485   0.445   0.471   0.473   0.486   0.467   0.474   0.455   0.466   0.456   0.474   0.477   0.474   0.459   0.472   0.448   0.458   0.447   0.462   0.459   0.438   0.437   0.433   0.454   0.466   0.458   0.463
    28.90    0.455   0.447   0.451   0.456   0.492   0.506   0.520   0.487   0.488   0.482   0.481   0.460   0.457   0.444   0.437   0.465   0.487   0.447   0.450   0.447   0.455   0.466   0.477   0.465   0.474   0.453   0.445   0.446   0.435   0.423   0.434   0.458   0.471   0.442   0.474
    24.25    0.473   0.460   0.486   0.466   0.478   0.497   0.493   0.480   0.465   0.455   0.480   0.459   0.466   0.451   0.431   0.455   0.471   0.459   0.464   0.461   0.447   0.463   0.470   0.480   0.486   0.474   0.457   0.454   0.427   0.442   0.435   0.458   0.462   0.444   0.460
    19.60    0.502   0.510   0.463   0.454   0.461   0.459   0.448   0.465   0.445   0.442   0.460   0.481   0.491   0.487   0.452   0.442   0.446   0.462   0.456   0.429   0.445   0.431   0.459   0.483   0.475   0.457   0.462   0.464   0.454   0.454   0.437   0.443   0.442   0.475   0.468
    14.95    0.454   0.489   0.487   0.460   0.456   0.453   0.448   0.450   0.438   0.428   0.431   0.461   0.478   0.492   0.461   0.452   0.466   0.444   0.439   0.450   0.436   0.449   0.468   0.468   0.465   0.457   0.464   0.472   0.474   0.470   0.445   0.433   0.461   0.511   0.505
    10.30    0.477   0.500   0.509   0.469   0.476   0.463   0.454   0.435   0.440   0.459   0.430   0.438   0.478   0.454   0.481   0.479   0.481   0.458   0.467   0.441   0.449   0.475   0.477   0.466   0.461   0.456   0.467   0.473   0.464   0.453   0.455   0.471   0.482   0.498   0.490
     5.65    0.486   0.515   0.508   0.507   0.494   0.457   0.472   0.442   0.440   0.468   0.456   0.449   0.469   0.502   0.495   0.494   0.478   0.481   0.474   0.461   0.482   0.477   0.479   0.483   0.485   0.470   0.471   0.476   0.488   0.487   0.479   0.502   0.496   0.482   0.475
     1.00    0.492   0.495   0.515   0.500   0.492   0.489   0.478   0.438   0.450   0.478   0.482   0.472   0.460   0.475   0.488   0.493   0.490   0.495   0.484   0.481   0.494   0.475   0.467   0.478   0.476   0.467   0.471   0.486   0.476   0.489   0.487   0.512   0.485   0.488   0.477

   Height   Standard deviation at grid points for the w component:
   168.40    0.260   0.263   0.259   0.258   0.261   0.265   0.262   0.252   0.258   0.265   0.271   0.277   0.279   0.274   0.258   0.270   0.271   0.271   0.274   0.272   0.277   0.281   0.266   0.273   0.273   0.265   0.262   0.264   0.252   0.269   0.262   0.267   0.263   0.274   0.271
   163.75    0.266   0.265   0.274   0.270   0.261   0.263   0.260   0.255   0.259   0.261   0.273   0.267   0.279   0.271   0.271   0.271   0.268   0.279   0.278   0.275   0.274   0.265   0.278   0.275   0.275   0.264   0.273   0.265   0.257   0.258   0.267   0.264   0.269   0.273   0.267
   159.10    0.284   0.286   0.273   0.276   0.264   0.263   0.263   0.256   0.264   0.265   0.264   0.263   0.278   0.282   0.272   0.276   0.270   0.268   0.272   0.271   0.273   0.271   0.267   0.271   0.266   0.263   0.272   0.265   0.252   0.257   0.266   0.247   0.259   0.271   0.268
   154.45    0.279   0.278   0.273   0.260   0.264   0.258   0.262   0.262   0.260   0.257   0.261   0.258   0.268   0.264   0.262   0.258   0.270   0.264   0.272   0.258   0.270   0.262   0.269   0.266   0.254   0.269   0.269   0.252   0.255   0.251   0.244   0.255   0.264   0.275   0.278
   149.80    0.274   0.274   0.265   0.266   0.264   0.255   0.248   0.255   0.269   0.268   0.261   0.267   0.261   0.261   0.260   0.265   0.268   0.255   0.262   0.255   0.264   0.260   0.261   0.261   0.270   0.262   0.262   0.260   0.258   0.256   0.252   0.252   0.263   0.266   0.256
   145.15    0.270   0.275   0.274   0.274   0.261   0.256   0.262   0.267   0.270   0.265   0.263   0.260   0.263   0.264   0.267   0.264   0.262   0.252   0.256   0.251   0.250   0.261   0.263   0.255   0.262   0.269   0.260   0.257   0.263   0.245   0.254   0.259   0.268   0.268   0.259
   140.50    0.260   0.273   0.266   0.276   0.264   0.256   0.255   0.264   0.274   0.273   0.256   0.263   0.261   0.272   0.259   0.260   0.265   0.259   0.248   0.267   0.248   0.255   0.264   0.264   0.266   0.266   0.261   0.262   0.261   0.259   0.249   0.258   0.254   0.266   0.267
   135.85    0.270   0.277   0.276   0.266   0.266   0.262   0.262   0.257   0.265   0.259   0.262   0.271   0.267   0.265   0.265   0.263   0.261   0.256   0.254   0.258   0.256   0.262   0.269   0.267   0.263   0.267   0.254   0.265   0.258   0.262   0.262   0.257   0.249   0.257   0.266
   131.20    0.272   0.279   0.266   0.261   0.260   0.263   0.261   0.269   0.260   0.265   0.266   0.270   0.268   0.253   0.256   0.261   0.258   0.256   0.248   0.255   0.251   0.259   0.273   0.265   0.263   0.264   0.263   0.263   0.259   0.260   0.253   0.258   0.260   0.256   0.261
   126.55    0.276   0.274   0.263   0.273   0.274   0.262   0.262   0.252   0.268   0.259   0.271   0.275   0.268   0.269   0.271   0.262   0.261   0.263   0.260   0.253   0.260   0.262   0.272   0.270   0.258   0.259   0.262   0.269   0.253   0.253   0.251   0.251   0.256   0.258   0.258
   121.90    0.269   0.274   0.277   0.265   0.273   0.267   0.264   0.248   0.262   0.265   0.268   0.264   0.270   0.276   0.263   0.264   0.267   0.261   0.259   0.251   0.251   0.258   0.274   0.272   0.268   0.260   0.258   0.269   0.257   0.262   0.260   0.250   0.246   0.250   0.254
   117.25    0.270   0.270   0.273   0.269   0.273   0.268   0.263   0.259   0.262   0.273   0.271   0.272   0.266   0.256   0.273   0.277   0.268   0.265   0.255   0.256   0.259   0.272   0.279   0.276   0.273   0.265   0.255   0.262   0.259   0.251   0.253   0.260   0.265   0.261   0.261
   112.60    0.259   0.264   0.261   0.266   0.268   0.264   0.269   0.270   0.274   0.283   0.274   0.274   0.278   0.258   0.265   0.277   0.272   0.259   0.262   0.269   0.263   0.275   0.278   0.279   0.269   0.264   0.256   0.262   0.259   0.249   0.254   0.253   0.260   0.273   0.259
   107.95    0.268   0.262   0.266   0.269   0.275   0.264   0.271   0.263   0.274   0.278   0.275   0.280   0.273   0.269   0.263   0.265   0.266   0.257   0.263   0.274   0.282   0.276   0.275   0.270   0.262   0.263   0.263   0.265   0.270   0.251   0.249   0.262   0.260   0.270   0.262
   103.30    0.263   0.274   0.268   0.279   0.275   0.270   0.270   0.269   0.284   0.273   0.270   0.274   0.271   0.265   0.268   0.262   0.256   0.256   0.261   0.266   0.261   0.256   0.261   0.264   0.260   0.256   0.260   0.259   0.253   0.257   0.249   0.253   0.255   0.276   0.274
    98.65    0.266   0.268   0.267   0.268   0.273   0.267   0.270   0.272   0.275   0.261   0.270   0.273   0.269   0.256   0.266   0.275   0.262   0.264   0.257   0.260   0.264   0.264   0.255   0.262   0.258   0.259   0.266   0.257   0.259   0.253   0.251   0.252   0.274   0.273   0.274
    94.00    0.267   0.268   0.255   0.262   0.263   0.279   0.276   0.282   0.266   0.253   0.275   0.259   0.272   0.274   0.266   0.271   0.272   0.277   0.272   0.276   0.267   0.268   0.256   0.263   0.261   0.256   0.263   0.263   0.262   0.270   0.270   0.265   0.268   0.266   0.271
    89.35    0.266   0.261   0.267   0.265   0.262   0.280   0.280   0.283   0.275   0.282   0.288   0.283   0.277   0.281   0.274   0.273   0.279   0.276   0.280   0.292   0.274   0.265   0.262   0.264   0.264   0.261   0.252   0.257   0.266   0.268   0.274   0.271   0.271   0.275   0.272
    84.70    0.259   0.263   0.274   0.284   0.272   0.267   0.280   0.265   0.258   0.274   0.276   0.275   0.279   0.272   0.275   0.276   0.289   0.285   0.284   0.279   0.270   0.261   0.262   0.265   0.263   0.263   0.263   0.251   0.263   0.269   0.274   0.269   0.272   0.281   0.279
    80.05    0.258   0.259   0.263   0.275   0.263   0.260   0.273   0.270   0.262   0.263   0.278   0.278   0.268   0.272   0.277   0.276   0.275   0.267   0.279   0.275   0.276   0.266   0.263   0.260   0.266   0.280   0.265   0.263   0.261   0.264   0.271   0.270   0.282   0.290   0.287
    75.40    0.269   0.264   0.260   0.269   0.261   0.251   0.255   0.264   0.261   0.257   0.268   0.278   0.274   0.279   0.278   0.274   0.272   0.280   0.284   0.268   0.267   0.267   0.259   0.264   0.263   0.272   0.260   0.268   0.260   0.267   0.279   0.280   0.288   0.291   0.292
    70.75    0.264   0.256   0.256   0.259   0.256   0.255   0.266   0.260   0.265   0.270   0.283   0.281   0.282   0.286   0.285   0.283   0.284   0.285   0.284   0.274   0.273   0.273   0.277   0.281   0.266   0.266   0.274   0.279   0.277   0.288   0.292   0.287   0.291   0.283   0.281
    66.10    0.267   0.259   0.263   0.262   0.258   0.260   0.267   0.268   0.271   0.275   0.273   0.273   0.288   0.295   0.280   0.279   0.282   0.291   0.280   0.284   0.278   0.278   0.288   0.289   0.274   0.270   0.274   0.278   0.272   0.280   0.287   0.286   0.283   0.295   0.289
    61.45    0.281   0.259   0.259   0.254   0.253   0.256   0.269   0.265   0.268   0.267   0.276   0.278   0.289   0.298   0.288   0.279   0.297   0.305   0.294   0.285   0.275   0.289   0.289   0.286   0.287   0.288   0.275   0.284   0.285   0.271   0.281   0.285   0.280   0.287   0.279
    56.80    0.270   0.262   0.254   0.252   0.251   0.255   0.261   0.262   0.262   0.259   0.279   0.269   0.275   0.289   0.284   0.284   0.292   0.287   0.287   0.290   0.302   0.291   0.282   0.291   0.291   0.272   0.275   0.271   0.282   0.286   0.287   0.281   0.283   0.276   0.277
    52.15    0.263   0.265   0.265   0.254   0.249   0.253   0.249   0.260   0.269   0.272   0.272   0.273   0.271   0.276   0.280   0.280   0.275   0.287   0.299   0.306   0.300   0.291   0.289   0.294   0.286   0.274   0.273   0.270   0.282   0.292   0.299   0.283   0.285   0.277   0.274
    47.50    0.262   0.261   0.264   0.255   0.250   0.253   0.246   0.258   0.267   0.268   0.264   0.271   0.264   0.272   0.286   0.283   0.282   0.277   0.291   0.289   0.297   0.300   0.284   0.289   0.284   0.287   0.278   0.272   0.286   0.290   0.300   0.281   0.269   0.277   0.274
    42.85    0.260   0.258   0.266   0.262   0.259   0.258   0.254   0.254   0.261   0.262   0.254   0.262   0.263   0.273   0.278   0.278   0.292   0.292   0.285   0.279   0.286   0.281   0.280   0.274   0.279   0.287   0.285   0.282   0.298   0.291   0.298   0.281   0.276   0.262   0.270
    38.20    0.259   0.264   0.272   0.275   0.256   0.260   0.260   0.251   0.258   0.264   0.262   0.266   0.265   0.271   0.274   0.267   0.277   0.287   0.268   0.278   0.273   0.287   0.278   0.279   0.286   0.294   0.286   0.291   0.287   0.294   0.297   0.283   0.270   0.259   0.267
    33.55    0.263   0.264   0.278   0.274   0.272   0.260   0.263   0.253   0.257   0.253   0.259   0.262   0.284   0.287   0.273   0.274   0.288   0.277   0.272   0.280   0.277   0.288   0.272   0.274   0.279   0.280   0.283   0.289   0.287   0.292   0.295   0.275   0.265   0.256   0.260
    28.90    0.260   0.265   0.267   0.271   0.258   0.266   0.264   0.251   0.260   0.261   0.272   0.271   0.275   0.287   0.278   0.278   0.274   0.279   0.277   0.283   0.280   0.286   0.284   0.284   0.297   0.291   0.280   0.291   0.278   0.296   0.293   0.261   0.260   0.270   0.254
    24.25    0.264   0.263   0.265   0.264   0.261   0.261   0.271   0.262   0.262   0.266   0.278   0.270   0.284   0.284   0.282   0.270   0.278   0.267   0.280   0.278   0.285   0.287   0.283   0.292   0.281   0.277   0.287   0.284   0.280   0.285   0.276   0.278   0.262   0.274   0.264
    19.60    0.253   0.262   0.256   0.266   0.266   0.262   0.263   0.256   0.269   0.282   0.283   0.280   0.277   0.286   0.275   0.273   0.275   0.269   0.277   0.289   0.278   0.280   0.288   0.293   0.272   0.279   0.280   0.276   0.273   0.277   0.275   0.278   0.274   0.273   0.255
    14.95    0.257   0.255   0.257   0.255   0.263   0.269   0.270   0.267   0.265   0.272   0.288   0.280   0.275   0.286   0.285   0.278   0.276   0.270   0.272   0.269   0.286   0.280   0.284   0.292   0.286   0.274   0.275   0.273   0.279   0.282   0.279   0.269   0.267   0.262   0.259
    10.30    0.250   0.247   0.256   0.260   0.257   0.272   0.269   0.261   0.261   0.266   0.269   0.275   0.279   0.276   0.273   0.283   0.273   0.274   0.278   0.270   0.272   0.275   0.285   0.293   0.277   0.280   0.266   0.273   0.280   0.277   0.273   0.266   0.268   0.265   0.263
     5.65    0.245   0.258   0.261   0.261   0.259   0.267   0.278   0.269   0.270   0.274   0.274   0.278   0.280   0.272   0.262   0.274   0.277   0.284   0.276   0.273   0.267   0.279   0.295   0.294   0.287   0.273   0.263   0.278   0.272   0.283   0.278   0.268   0.271   0.268   0.263
     1.00    0.268   0.267   0.268   0.267   0.264   0.270   0.277   0.273   0.265   0.273   0.271   0.280   0.284   0.265   0.261   0.275   0.273   0.274   0.283   0.280   0.283   0.286   0.289   0.280   0.278   0.265   0.265   0.267   0.262   0.277   0.279   0.271   0.269   0.267   0.267

   Mean standard deviation across all grid points:
      u component:    0.530 m/s
      v component:    0.469 m/s
      w component:    0.269 m/s


U-component (X) statistics from the interpolated hub point:

   Mean =   9.9913 m/s
   TI   =   5.3561 %


Processing complete.  6181.5 CPU seconds used.
