
This summary file was generated by TurbSim (from OpenFAST-v3.5.3) on 20-Apr-2025 at 11:42:59.


Runtime Options:

1333634118  Random seed #1
    RANLUX  Type of random number generator
         F  Output binary HH turbulence parameters?
         F  Output formatted turbulence parameters?
         F  Output AeroDyn HH files?
         T  Output AeroDyn FF files?
         F  Output BLADED FF files?
         F  Output tower data?
         F  Output HAWC FF files?
         F  Output formatted FF files?
         T  Output coherent turbulence time step file?
 0 -  NONE  IEC turbulence models scaled to exact specified standard deviation


Turbine/Model Specifications:

        37  Vertical grid-point matrix dimension
        35  Horizontal grid-point matrix dimension
     0.250  Time step [seconds]
   900.000  Analysis time [seconds]
   900.000  Usable output time [seconds]
    89.350  Hub height [m]
   167.400  Grid height [m]
   158.100  Grid width [m]
     0.000  Vertical flow angle [degrees]
     0.000  Horizontal flow angle [degrees]


Meteorological Boundary Conditions:

    TIMESR  User-input time series spectral model
       N/A  IEC standard
       N/A  IEC turbulence characteristic
       N/A  IEC turbulence type
       N/A  IEC Extreme Turbulence Model (ETM) "c" parameter [m/s]
       PL   Wind profile type
    90.000  Reference height [m]
    10.000  Reference wind speed [m/s]
       N/A  Jet height [m]
     0.120  Power law exponent
     0.030  Surface roughness length [m]


Non-IEC Meteorological Boundary Conditions:

    45.000  Site latitude [degrees]
     0.050  Gradient Richardson number
     0.480  Friction or shear velocity [m/s]
       N/A  Mixing layer depth [m]
       N/A  Mean hub u'w' Reynolds stress
       N/A  Mean hub u'v' Reynolds stress
       N/A  Mean hub v'w' Reynolds stress


Spatial Coherence Models:

       IEC  u-component coherence model
       IEC  v-component coherence model
       IEC  w-component coherence model
(   12.000, 0.353E-03)  u-component coherence parameters
(   12.000, 0.353E-03)  v-component coherence parameters
(   12.000, 0.353E-03)  w-component coherence parameters
       N/A  Coherence exponent


Coherent Turbulence Scaling Parameters:

.\EventData
            Name of the path containing the coherent turbulence data files
       dns  Type of coherent turbulence data files
     1.000  Disturbance scale (ratio of wave height to rotor diameter)
     0.500  Fractional location of tower centerline from right
     0.500  Fractional location of hub height from the bottom of the dataset
    30.000  Minimum start time for coherent structures [seconds]


Profiles from User-Defined Time-Series Input:

  Height   Wind Speed   Horizontal Angle   Vertical Angle
   (m)        (m/s)          (deg)              (deg)    
  ------   ----------   ----------------   --------------
   94.00      10.00          -0.63               -0.00


You have requested that the following file(s) be generated:

   /kfs3/scratch/agupta/Projects/RL_Incubator/FinalRuns_Veer/Seed4/./FFSim_Seed4/Cond00_v10.0_PL0.12_TI3.0/Case3_wdirp06/Seed_4/TurbSim/HighT7.bts (AeroDyn/TurbSim full-field wind file)


Turbulence Simulation Scaling Parameter Summary:

   Turbulence model used                            =  User-input time series
   Gradient Richardson number                       =    0.050
   Monin-Obukhov (M-O) z/L parameter                =    0.067
   Monin-Obukhov (M-O) length scale                 = 1340.250 m
   Mean wind speed at hub height                    =    9.991 m/s

   Wind profile type                                =  Power law
   Power law exponent                               =    0.120
   Mean shear across rotor disk                     =    0.019 (m/s)/m
   Assumed rotor diameter                           =  158.100 m
   Surface roughness length                         =    0.030 m

   Nyquist frequency of turbulent wind field        =    2.000 Hz

   Number of time steps in the FFT                  =     3600
   Number of time steps output                      =     3600
   Number of points simulated                       =     1296


Mean Flow Angles:

   Vertical   =   0.0 degrees
   Horizontal =   0.0 degrees

Mean Wind Speed Profile:

   Height    Wind Speed   Horizontal Angle  Vertical Angle  U-comp (X)   V-comp (Y)   W-comp (Z)
     (m)        (m/s)         (degrees)       (degrees)       (m/s)        (m/s)        (m/s)   
   ------    ----------   ----------------  --------------  ----------   ----------   ----------
    168.4       10.78            0.00            0.00         10.78         0.00         0.00
    163.7       10.74            0.00            0.00         10.74         0.00         0.00
    159.1       10.71            0.00            0.00         10.71         0.00         0.00
    154.4       10.67            0.00            0.00         10.67         0.00         0.00
    149.8       10.63            0.00            0.00         10.63         0.00         0.00
    145.1       10.59            0.00            0.00         10.59         0.00         0.00
    140.5       10.55            0.00            0.00         10.55         0.00         0.00
    135.8       10.51            0.00            0.00         10.51         0.00         0.00
    131.2       10.46            0.00            0.00         10.46         0.00         0.00
    126.5       10.42            0.00            0.00         10.42         0.00         0.00
    121.9       10.37            0.00            0.00         10.37         0.00         0.00
    117.2       10.32            0.00            0.00         10.32         0.00         0.00
    112.6       10.27            0.00            0.00         10.27         0.00         0.00
    107.9       10.22            0.00            0.00         10.22         0.00         0.00
    103.3       10.17            0.00            0.00         10.17         0.00         0.00
     98.6       10.11            0.00            0.00         10.11         0.00         0.00
     94.0       10.05            0.00            0.00         10.05         0.00         0.00
     89.3        9.99            0.00            0.00          9.99         0.00         0.00
     84.7        9.93            0.00            0.00          9.93         0.00         0.00
     80.0        9.86            0.00            0.00          9.86         0.00         0.00
     75.4        9.79            0.00            0.00          9.79         0.00         0.00
     70.7        9.72            0.00            0.00          9.72         0.00         0.00
     66.1        9.64            0.00            0.00          9.64         0.00         0.00
     61.4        9.55            0.00            0.00          9.55         0.00         0.00
     56.8        9.46            0.00            0.00          9.46         0.00         0.00
     52.1        9.37            0.00            0.00          9.37         0.00         0.00
     47.5        9.26            0.00            0.00          9.26         0.00         0.00
     42.8        9.15            0.00            0.00          9.15         0.00         0.00
     38.2        9.02            0.00            0.00          9.02         0.00         0.00
     33.5        8.88            0.00            0.00          8.88         0.00         0.00
     28.9        8.73            0.00            0.00          8.73         0.00         0.00
     24.2        8.54            0.00            0.00          8.54         0.00         0.00
     19.6        8.33            0.00            0.00          8.33         0.00         0.00
     14.9        8.06            0.00            0.00          8.06         0.00         0.00
     10.3        7.71            0.00            0.00          7.71         0.00         0.00
      5.6        7.17            0.00            0.00          7.17         0.00         0.00
      1.0        5.83            0.00            0.00          5.83         0.00         0.00


Harvested Random Seeds after Generation of the Random Numbers:

     65026800 K 1
            0 K 2


Hub-Height Simulated Turbulence Statistical Summary:

   Type of Wind        Min (m/s)   Mean (m/s)    Max (m/s)  Sigma (m/s)       TI (%)
   ----------------    ---------   ----------    ---------  -----------       ------
   Longitudinal (u)         9.11         9.99        10.94        0.308        3.085
   Lateral (v)             -0.71        -0.00         0.76        0.228        2.281
   Vertical (w)            -0.47        -0.00         0.47        0.137        1.371
   U component              9.11         9.99        10.94        0.308        3.085
   V component             -0.71        -0.00         0.76        0.228        2.281
   W component             -0.47        -0.00         0.47        0.137        1.371
   Horizontal (U&V)         9.12         9.99        10.95        0.308        3.086
   Total                    9.12         9.99        10.95        0.308        3.086

                       Min Reynolds     Mean Reynolds    Max Reynolds    Correlation
   Product             Stress (m/s)^2   Stress (m/s)^2   Stress (m/s)^2  Coefficient
   ----------------    --------------   --------------   --------------  -----------
   u'w'                     -0.293             0.004             0.217         0.100
   u'v'                     -0.350             0.008             0.386         0.114
   v'w'                     -0.228             0.001             0.204         0.020


   Friction Velocity (Ustar)  =      0.065 m/s
   Maximum Instantaneous TKE  =      0.505 (m/s)^2
   Maximum Instantaneous CTKE =      0.201 (m/s)^2


Grid Point Variance Summary:

   Y-coord  -79.05  -74.40  -69.75  -65.10  -60.45  -55.80  -51.15  -46.50  -41.85  -37.20  -32.55  -27.90  -23.25  -18.60  -13.95   -9.30   -4.65    0.00    4.65    9.30   13.95   18.60   23.25   27.90   32.55   37.20   41.85   46.50   51.15   55.80   60.45   65.10   69.75   74.40   79.05

   Height   Standard deviation at grid points for the u component:
   168.40    0.279   0.287   0.272   0.270   0.279   0.284   0.272   0.278   0.285   0.285   0.313   0.300   0.320   0.331   0.324   0.320   0.290   0.275   0.254   0.246   0.270   0.270   0.263   0.277   0.261   0.255   0.275   0.273   0.289   0.279   0.280   0.293   0.310   0.285   0.279
   163.75    0.305   0.283   0.288   0.265   0.290   0.291   0.294   0.287   0.290   0.280   0.313   0.291   0.315   0.309   0.318   0.311   0.287   0.255   0.233   0.232   0.265   0.276   0.275   0.256   0.271   0.272   0.267   0.277   0.301   0.299   0.304   0.312   0.282   0.293   0.302
   159.10    0.308   0.297   0.275   0.276   0.296   0.302   0.299   0.270   0.274   0.299   0.311   0.294   0.303   0.313   0.307   0.304   0.270   0.258   0.255   0.264   0.268   0.280   0.274   0.260   0.255   0.266   0.272   0.271   0.296   0.318   0.289   0.302   0.289   0.298   0.282
   154.45    0.301   0.298   0.290   0.280   0.291   0.272   0.271   0.280   0.274   0.304   0.312   0.299   0.304   0.312   0.307   0.279   0.290   0.298   0.278   0.261   0.269   0.253   0.248   0.243   0.249   0.259   0.273   0.289   0.303   0.312   0.312   0.299   0.299   0.296   0.281
   149.80    0.307   0.293   0.277   0.294   0.282   0.289   0.282   0.280   0.281   0.294   0.302   0.308   0.316   0.298   0.290   0.291   0.287   0.280   0.281   0.270   0.261   0.248   0.225   0.229   0.230   0.246   0.261   0.269   0.275   0.284   0.299   0.297   0.288   0.310   0.294
   145.15    0.322   0.295   0.277   0.292   0.280   0.290   0.287   0.286   0.284   0.290   0.289   0.300   0.309   0.307   0.312   0.305   0.278   0.287   0.273   0.266   0.272   0.252   0.232   0.233   0.234   0.232   0.262   0.273   0.275   0.276   0.277   0.292   0.287   0.296   0.286
   140.50    0.294   0.293   0.307   0.304   0.300   0.290   0.270   0.279   0.269   0.281   0.278   0.274   0.268   0.282   0.290   0.297   0.286   0.280   0.271   0.273   0.270   0.268   0.229   0.240   0.235   0.246   0.247   0.269   0.269   0.279   0.283   0.292   0.299   0.281   0.280
   135.85    0.314   0.302   0.317   0.312   0.291   0.292   0.280   0.272   0.285   0.283   0.263   0.251   0.254   0.269   0.269   0.278   0.269   0.270   0.275   0.257   0.271   0.259   0.256   0.248   0.243   0.256   0.252   0.258   0.271   0.278   0.290   0.291   0.291   0.277   0.285
   131.20    0.313   0.324   0.301   0.304   0.296   0.296   0.271   0.277   0.287   0.277   0.261   0.267   0.270   0.264   0.265   0.285   0.268   0.273   0.280   0.270   0.274   0.255   0.254   0.256   0.257   0.252   0.259   0.264   0.270   0.289   0.300   0.298   0.301   0.273   0.301
   126.55    0.300   0.287   0.316   0.297   0.303   0.291   0.298   0.288   0.262   0.269   0.265   0.262   0.252   0.267   0.273   0.275   0.283   0.270   0.273   0.270   0.265   0.260   0.258   0.280   0.271   0.268   0.274   0.276   0.282   0.287   0.277   0.265   0.287   0.288   0.290
   121.90    0.277   0.268   0.305   0.301   0.300   0.304   0.296   0.302   0.266   0.265   0.267   0.266   0.271   0.280   0.270   0.262   0.277   0.273   0.267   0.267   0.262   0.272   0.279   0.281   0.280   0.277   0.268   0.259   0.271   0.260   0.273   0.275   0.294   0.287   0.308
   117.25    0.261   0.273   0.281   0.298   0.310   0.300   0.292   0.279   0.269   0.269   0.278   0.288   0.279   0.264   0.262   0.266   0.270   0.273   0.273   0.267   0.263   0.268   0.286   0.278   0.275   0.286   0.266   0.259   0.262   0.258   0.270   0.266   0.292   0.296   0.296
   112.60    0.273   0.279   0.295   0.274   0.286   0.295   0.277   0.264   0.288   0.294   0.314   0.288   0.282   0.277   0.265   0.280   0.289   0.267   0.289   0.277   0.270   0.267   0.273   0.289   0.291   0.297   0.279   0.254   0.275   0.275   0.291   0.295   0.285   0.302   0.291
   107.95    0.276   0.280   0.273   0.282   0.300   0.299   0.281   0.272   0.288   0.297   0.292   0.295   0.292   0.295   0.285   0.305   0.302   0.280   0.290   0.304   0.294   0.297   0.297   0.297   0.286   0.280   0.286   0.274   0.294   0.300   0.311   0.321   0.312   0.312   0.319
   103.30    0.287   0.296   0.271   0.279   0.288   0.299   0.291   0.273   0.274   0.292   0.268   0.263   0.290   0.270   0.272   0.289   0.306   0.312   0.278   0.277   0.289   0.291   0.284   0.309   0.299   0.294   0.302   0.291   0.311   0.321   0.334   0.334   0.307   0.317   0.331
    98.65    0.307   0.315   0.298   0.289   0.333   0.303   0.288   0.272   0.267   0.270   0.273   0.268   0.283   0.274   0.293   0.317   0.325   0.305   0.300   0.299   0.282   0.292   0.292   0.301   0.305   0.308   0.310   0.322   0.326   0.322   0.319   0.334   0.335   0.310   0.335
    94.00    0.319   0.300   0.303   0.320   0.339   0.320   0.302   0.291   0.281   0.261   0.276   0.288   0.288   0.296   0.309   0.326   0.325   0.319   0.285   0.297   0.295   0.286   0.307   0.309   0.292   0.325   0.314   0.321   0.322   0.319   0.317   0.321   0.336   0.326   0.318
    89.35    0.313   0.314   0.333   0.329   0.321   0.326   0.312   0.271   0.282   0.265   0.282   0.290   0.290   0.296   0.316   0.291   0.293   0.308   0.294   0.304   0.281   0.274   0.277   0.299   0.307   0.308   0.302   0.305   0.326   0.321   0.317   0.312   0.314   0.327   0.332
    84.70    0.307   0.329   0.328   0.324   0.351   0.320   0.297   0.283   0.281   0.297   0.280   0.274   0.281   0.296   0.322   0.294   0.285   0.292   0.299   0.298   0.267   0.278   0.273   0.275   0.272   0.279   0.313   0.317   0.310   0.306   0.323   0.311   0.311   0.317   0.327
    80.05    0.322   0.327   0.316   0.319   0.340   0.326   0.300   0.290   0.301   0.307   0.294   0.285   0.302   0.320   0.329   0.308   0.285   0.283   0.294   0.291   0.281   0.268   0.284   0.292   0.284   0.303   0.302   0.306   0.309   0.301   0.310   0.315   0.321   0.317   0.342
    75.40    0.325   0.314   0.299   0.315   0.326   0.298   0.306   0.284   0.275   0.303   0.288   0.274   0.303   0.344   0.339   0.319   0.309   0.305   0.300   0.295   0.293   0.276   0.289   0.290   0.300   0.297   0.311   0.317   0.314   0.305   0.307   0.322   0.335   0.329   0.332
    70.75    0.314   0.299   0.324   0.335   0.344   0.327   0.290   0.291   0.284   0.299   0.286   0.285   0.298   0.331   0.349   0.323   0.321   0.314   0.288   0.298   0.286   0.286   0.293   0.302   0.305   0.299   0.317   0.324   0.307   0.302   0.301   0.312   0.300   0.306   0.324
    66.10    0.310   0.308   0.341   0.347   0.345   0.339   0.305   0.291   0.294   0.298   0.295   0.296   0.304   0.327   0.332   0.327   0.320   0.301   0.314   0.306   0.294   0.287   0.302   0.297   0.304   0.328   0.300   0.317   0.315   0.301   0.284   0.288   0.287   0.294   0.307
    61.45    0.339   0.335   0.334   0.349   0.342   0.321   0.315   0.314   0.296   0.321   0.323   0.311   0.306   0.311   0.340   0.336   0.335   0.340   0.326   0.330   0.324   0.302   0.299   0.287   0.305   0.326   0.300   0.310   0.315   0.317   0.313   0.302   0.283   0.282   0.311
    56.80    0.336   0.331   0.347   0.345   0.355   0.349   0.319   0.321   0.320   0.323   0.346   0.337   0.330   0.345   0.361   0.361   0.348   0.325   0.332   0.325   0.325   0.319   0.323   0.308   0.296   0.330   0.319   0.319   0.322   0.317   0.316   0.330   0.319   0.328   0.326
    52.15    0.317   0.321   0.356   0.355   0.367   0.340   0.310   0.323   0.319   0.312   0.341   0.369   0.353   0.375   0.375   0.351   0.348   0.342   0.328   0.331   0.334   0.317   0.303   0.313   0.314   0.348   0.323   0.316   0.314   0.319   0.331   0.358   0.331   0.336   0.348
    47.50    0.311   0.343   0.354   0.367   0.362   0.350   0.338   0.354   0.335   0.335   0.360   0.374   0.376   0.387   0.385   0.352   0.357   0.332   0.323   0.337   0.323   0.309   0.295   0.321   0.326   0.339   0.317   0.308   0.326   0.339   0.350   0.363   0.352   0.333   0.331
    42.85    0.311   0.347   0.354   0.364   0.343   0.337   0.346   0.329   0.353   0.346   0.378   0.387   0.392   0.399   0.384   0.356   0.354   0.334   0.296   0.323   0.326   0.310   0.332   0.341   0.319   0.341   0.328   0.307   0.338   0.349   0.319   0.339   0.345   0.361   0.347
    38.20    0.320   0.334   0.351   0.349   0.352   0.334   0.355   0.351   0.360   0.353   0.372   0.395   0.385   0.382   0.369   0.358   0.356   0.324   0.317   0.331   0.321   0.319   0.310   0.326   0.307   0.332   0.347   0.346   0.354   0.334   0.341   0.327   0.357   0.378   0.381
    33.55    0.307   0.337   0.344   0.347   0.347   0.313   0.344   0.356   0.354   0.349   0.379   0.392   0.388   0.391   0.360   0.347   0.343   0.318   0.335   0.342   0.340   0.338   0.316   0.309   0.322   0.328   0.321   0.339   0.366   0.359   0.366   0.359   0.386   0.403   0.379
    28.90    0.313   0.310   0.315   0.315   0.303   0.328   0.327   0.326   0.345   0.339   0.370   0.371   0.393   0.381   0.363   0.352   0.335   0.321   0.325   0.351   0.350   0.355   0.339   0.339   0.358   0.338   0.330   0.360   0.376   0.385   0.371   0.381   0.383   0.381   0.399
    24.25    0.313   0.307   0.327   0.317   0.313   0.329   0.335   0.312   0.325   0.343   0.369   0.360   0.376   0.372   0.366   0.362   0.320   0.317   0.290   0.339   0.352   0.351   0.363   0.339   0.345   0.341   0.352   0.356   0.388   0.405   0.390   0.389   0.401   0.409   0.388
    19.60    0.294   0.321   0.309   0.319   0.312   0.311   0.324   0.326   0.340   0.353   0.358   0.368   0.363   0.373   0.372   0.344   0.325   0.306   0.322   0.321   0.344   0.370   0.359   0.348   0.346   0.361   0.363   0.379   0.401   0.398   0.400   0.411   0.409   0.376   0.390
    14.95    0.327   0.315   0.292   0.291   0.301   0.302   0.326   0.317   0.332   0.330   0.351   0.358   0.352   0.354   0.359   0.353   0.339   0.317   0.306   0.321   0.339   0.377   0.370   0.361   0.356   0.366   0.373   0.395   0.392   0.397   0.384   0.404   0.401   0.379   0.372
    10.30    0.318   0.298   0.309   0.299   0.310   0.301   0.313   0.323   0.339   0.339   0.348   0.331   0.355   0.345   0.356   0.348   0.316   0.304   0.319   0.323   0.339   0.367   0.359   0.327   0.331   0.335   0.373   0.389   0.394   0.412   0.384   0.379   0.401   0.381   0.368
     5.65    0.307   0.290   0.294   0.307   0.300   0.308   0.313   0.304   0.321   0.317   0.333   0.325   0.332   0.327   0.339   0.321   0.295   0.324   0.327   0.323   0.338   0.343   0.342   0.322   0.303   0.312   0.353   0.381   0.406   0.414   0.374   0.372   0.381   0.392   0.370
     1.00    0.306   0.315   0.304   0.300   0.297   0.297   0.289   0.276   0.292   0.310   0.323   0.331   0.322   0.335   0.339   0.313   0.299   0.311   0.331   0.299   0.318   0.326   0.316   0.320   0.316   0.321   0.347   0.351   0.382   0.390   0.372   0.354   0.365   0.379   0.366

   Height   Standard deviation at grid points for the v component:
   168.40    0.209   0.220   0.208   0.222   0.223   0.211   0.199   0.198   0.199   0.205   0.214   0.207   0.208   0.212   0.213   0.214   0.219   0.227   0.227   0.215   0.212   0.208   0.209   0.197   0.198   0.204   0.202   0.206   0.203   0.216   0.218   0.225   0.220   0.221   0.219
   163.75    0.218   0.217   0.213   0.207   0.207   0.209   0.207   0.204   0.197   0.212   0.206   0.206   0.223   0.207   0.212   0.214   0.215   0.219   0.227   0.222   0.213   0.212   0.214   0.215   0.209   0.207   0.208   0.209   0.201   0.207   0.224   0.224   0.225   0.228   0.224
   159.10    0.215   0.223   0.223   0.210   0.201   0.210   0.208   0.215   0.209   0.209   0.211   0.212   0.206   0.215   0.212   0.216   0.203   0.235   0.232   0.228   0.215   0.218   0.205   0.206   0.208   0.205   0.204   0.206   0.197   0.201   0.220   0.234   0.237   0.232   0.234
   154.45    0.222   0.213   0.214   0.209   0.203   0.200   0.215   0.212   0.212   0.208   0.208   0.210   0.207   0.207   0.206   0.222   0.220   0.239   0.245   0.236   0.232   0.221   0.219   0.202   0.202   0.204   0.194   0.193   0.201   0.209   0.220   0.229   0.236   0.226   0.232
   149.80    0.216   0.220   0.219   0.211   0.211   0.208   0.207   0.219   0.229   0.221   0.214   0.218   0.218   0.199   0.206   0.208   0.224   0.240   0.241   0.226   0.226   0.241   0.222   0.215   0.218   0.213   0.207   0.204   0.205   0.206   0.207   0.224   0.225   0.226   0.242
   145.15    0.229   0.219   0.221   0.206   0.199   0.199   0.200   0.210   0.221   0.229   0.223   0.228   0.223   0.205   0.208   0.214   0.229   0.232   0.231   0.223   0.240   0.244   0.225   0.219   0.214   0.206   0.204   0.200   0.192   0.202   0.210   0.216   0.229   0.223   0.224
   140.50    0.209   0.203   0.210   0.201   0.201   0.199   0.198   0.197   0.210   0.219   0.225   0.221   0.218   0.211   0.207   0.216   0.228   0.227   0.237   0.221   0.232   0.244   0.237   0.217   0.213   0.207   0.208   0.205   0.213   0.202   0.203   0.215   0.225   0.224   0.226
   135.85    0.220   0.206   0.206   0.201   0.201   0.194   0.199   0.210   0.213   0.206   0.213   0.219   0.220   0.217   0.222   0.216   0.225   0.225   0.225   0.230   0.231   0.234   0.238   0.230   0.216   0.204   0.200   0.214   0.218   0.217   0.220   0.217   0.224   0.222   0.229
   131.20    0.210   0.216   0.210   0.208   0.200   0.201   0.214   0.213   0.216   0.216   0.221   0.219   0.229   0.226   0.229   0.221   0.220   0.223   0.218   0.229   0.215   0.222   0.229   0.222   0.215   0.202   0.204   0.220   0.202   0.218   0.219   0.212   0.227   0.226   0.230
   126.55    0.201   0.201   0.214   0.220   0.208   0.203   0.225   0.233   0.230   0.220   0.228   0.226   0.225   0.224   0.226   0.230   0.221   0.229   0.219   0.218   0.212   0.216   0.227   0.227   0.215   0.215   0.209   0.215   0.205   0.210   0.220   0.219   0.222   0.227   0.224
   121.90    0.200   0.213   0.209   0.222   0.229   0.228   0.232   0.227   0.235   0.232   0.244   0.234   0.228   0.230   0.225   0.241   0.225   0.227   0.229   0.210   0.223   0.225   0.226   0.224   0.210   0.221   0.209   0.211   0.199   0.209   0.215   0.215   0.226   0.232   0.241
   117.25    0.211   0.224   0.232   0.245   0.230   0.229   0.227   0.233   0.229   0.227   0.234   0.238   0.227   0.230   0.231   0.228   0.221   0.219   0.220   0.229   0.216   0.224   0.228   0.233   0.219   0.222   0.216   0.206   0.200   0.201   0.208   0.216   0.215   0.229   0.230
   112.60    0.217   0.217   0.236   0.238   0.241   0.238   0.234   0.239   0.243   0.234   0.240   0.243   0.240   0.227   0.224   0.217   0.210   0.212   0.213   0.228   0.224   0.216   0.215   0.224   0.224   0.224   0.218   0.209   0.215   0.205   0.213   0.212   0.213   0.230   0.214
   107.95    0.233   0.223   0.241   0.241   0.233   0.248   0.253   0.255   0.248   0.222   0.232   0.235   0.238   0.226   0.212   0.219   0.219   0.215   0.226   0.225   0.223   0.220   0.224   0.227   0.221   0.231   0.226   0.220   0.218   0.207   0.204   0.208   0.212   0.221   0.222
   103.30    0.228   0.247   0.248   0.257   0.247   0.262   0.257   0.243   0.242   0.243   0.232   0.236   0.242   0.227   0.220   0.206   0.224   0.226   0.227   0.226   0.225   0.225   0.214   0.229   0.232   0.220   0.223   0.220   0.214   0.214   0.220   0.216   0.201   0.213   0.219
    98.65    0.236   0.245   0.249   0.268   0.258   0.252   0.257   0.250   0.237   0.235   0.230   0.232   0.236   0.231   0.223   0.215   0.233   0.234   0.221   0.225   0.226   0.221   0.217   0.228   0.231   0.218   0.219   0.231   0.216   0.223   0.221   0.219   0.212   0.214   0.221
    94.00    0.237   0.251   0.265   0.257   0.251   0.254   0.234   0.245   0.240   0.229   0.218   0.228   0.231   0.225   0.225   0.220   0.224   0.224   0.229   0.224   0.238   0.243   0.250   0.230   0.225   0.228   0.226   0.230   0.231   0.226   0.230   0.233   0.222   0.223   0.217
    89.35    0.249   0.247   0.259   0.268   0.239   0.244   0.247   0.248   0.248   0.223   0.219   0.214   0.217   0.223   0.221   0.217   0.220   0.228   0.232   0.224   0.228   0.248   0.251   0.249   0.228   0.228   0.229   0.233   0.228   0.230   0.224   0.221   0.217   0.223   0.217
    84.70    0.250   0.245   0.252   0.257   0.240   0.233   0.240   0.243   0.225   0.232   0.218   0.208   0.211   0.217   0.217   0.209   0.210   0.228   0.229   0.222   0.227   0.248   0.238   0.244   0.238   0.229   0.237   0.236   0.222   0.224   0.226   0.223   0.220   0.225   0.216
    80.05    0.243   0.256   0.246   0.253   0.240   0.238   0.237   0.230   0.233   0.220   0.213   0.225   0.221   0.228   0.222   0.224   0.217   0.219   0.228   0.240   0.243   0.242   0.250   0.255   0.243   0.229   0.230   0.230   0.219   0.217   0.218   0.219   0.218   0.218   0.218
    75.40    0.249   0.246   0.244   0.239   0.238   0.238   0.239   0.230   0.222   0.222   0.211   0.222   0.229   0.230   0.211   0.216   0.226   0.227   0.239   0.259   0.256   0.254   0.262   0.260   0.235   0.231   0.221   0.231   0.214   0.229   0.225   0.224   0.211   0.215   0.216
    70.75    0.248   0.240   0.233   0.236   0.216   0.233   0.231   0.224   0.222   0.224   0.214   0.212   0.214   0.227   0.214   0.220   0.221   0.224   0.231   0.245   0.256   0.254   0.258   0.250   0.238   0.232   0.232   0.245   0.243   0.242   0.232   0.219   0.218   0.211   0.218
    66.10    0.261   0.252   0.234   0.241   0.230   0.231   0.226   0.228   0.231   0.228   0.218   0.225   0.225   0.227   0.222   0.211   0.228   0.217   0.230   0.241   0.230   0.248   0.245   0.247   0.236   0.229   0.222   0.237   0.237   0.238   0.244   0.239   0.214   0.220   0.211
    61.45    0.260   0.250   0.242   0.231   0.226   0.221   0.233   0.223   0.221   0.230   0.224   0.235   0.239   0.242   0.222   0.223   0.216   0.227   0.227   0.234   0.234   0.245   0.226   0.234   0.229   0.223   0.210   0.234   0.239   0.245   0.242   0.230   0.220   0.216   0.213
    56.80    0.253   0.256   0.237   0.230   0.222   0.228   0.225   0.225   0.223   0.225   0.226   0.245   0.245   0.231   0.225   0.223   0.232   0.225   0.238   0.224   0.229   0.230   0.235   0.218   0.226   0.220   0.214   0.224   0.246   0.249   0.229   0.219   0.220   0.212   0.212
    52.15    0.248   0.250   0.249   0.226   0.223   0.211   0.218   0.220   0.222   0.217   0.234   0.237   0.239   0.226   0.222   0.219   0.224   0.220   0.230   0.231   0.221   0.223   0.219   0.219   0.218   0.215   0.215   0.226   0.237   0.239   0.230   0.218   0.214   0.213   0.207
    47.50    0.240   0.239   0.240   0.224   0.224   0.225   0.218   0.216   0.216   0.215   0.219   0.227   0.227   0.217   0.223   0.227   0.225   0.226   0.225   0.224   0.224   0.230   0.227   0.222   0.217   0.207   0.227   0.234   0.237   0.234   0.239   0.235   0.229   0.222   0.209
    42.85    0.233   0.231   0.231   0.222   0.221   0.226   0.230   0.220   0.218   0.226   0.230   0.231   0.225   0.212   0.226   0.220   0.236   0.230   0.223   0.212   0.224   0.234   0.237   0.217   0.212   0.212   0.231   0.234   0.252   0.249   0.240   0.247   0.240   0.246   0.227
    38.20    0.231   0.231   0.237   0.228   0.232   0.240   0.232   0.232   0.235   0.228   0.220   0.227   0.225   0.217   0.213   0.224   0.223   0.214   0.204   0.209   0.207   0.226   0.228   0.218   0.213   0.213   0.231   0.232   0.231   0.244   0.251   0.261   0.264   0.246   0.231
    33.55    0.221   0.221   0.228   0.219   0.230   0.248   0.228   0.223   0.226   0.224   0.231   0.240   0.224   0.211   0.207   0.214   0.217   0.222   0.221   0.211   0.212   0.228   0.235   0.220   0.210   0.216   0.227   0.235   0.234   0.241   0.247   0.246   0.254   0.254   0.250
    28.90    0.222   0.215   0.230   0.233   0.238   0.240   0.232   0.224   0.216   0.215   0.223   0.234   0.236   0.222   0.218   0.217   0.220   0.224   0.225   0.216   0.217   0.228   0.231   0.228   0.220   0.220   0.229   0.225   0.231   0.236   0.245   0.248   0.253   0.240   0.247
    24.25    0.223   0.219   0.233   0.240   0.233   0.230   0.224   0.216   0.218   0.224   0.228   0.241   0.234   0.225   0.220   0.224   0.217   0.218   0.219   0.218   0.225   0.221   0.232   0.226   0.224   0.235   0.229   0.234   0.231   0.230   0.242   0.258   0.251   0.245   0.255
    19.60    0.229   0.229   0.220   0.232   0.225   0.225   0.223   0.216   0.227   0.226   0.227   0.237   0.235   0.232   0.235   0.234   0.222   0.219   0.221   0.222   0.223   0.226   0.242   0.247   0.238   0.241   0.234   0.226   0.226   0.221   0.237   0.250   0.234   0.244   0.252
    14.95    0.234   0.226   0.229   0.223   0.221   0.229   0.225   0.210   0.214   0.214   0.218   0.230   0.233   0.228   0.241   0.248   0.227   0.223   0.224   0.226   0.234   0.237   0.246   0.237   0.239   0.234   0.230   0.234   0.237   0.229   0.236   0.244   0.229   0.241   0.250
    10.30    0.223   0.228   0.224   0.222   0.203   0.218   0.222   0.210   0.210   0.219   0.216   0.223   0.222   0.215   0.225   0.239   0.241   0.228   0.222   0.221   0.231   0.236   0.244   0.237   0.230   0.233   0.227   0.230   0.241   0.250   0.247   0.229   0.232   0.233   0.238
     5.65    0.220   0.226   0.222   0.216   0.210   0.215   0.216   0.218   0.217   0.229   0.217   0.231   0.221   0.220   0.227   0.234   0.234   0.225   0.227   0.241   0.225   0.235   0.238   0.234   0.226   0.226   0.233   0.229   0.235   0.241   0.239   0.233   0.230   0.232   0.233
     1.00    0.224   0.219   0.207   0.210   0.213   0.211   0.218   0.208   0.214   0.218   0.201   0.211   0.214   0.217   0.230   0.222   0.231   0.235   0.233   0.236   0.243   0.235   0.231   0.230   0.229   0.247   0.238   0.230   0.237   0.232   0.237   0.231   0.225   0.225   0.229

   Height   Standard deviation at grid points for the w component:
   168.40    0.152   0.146   0.152   0.152   0.154   0.156   0.154   0.156   0.156   0.148   0.150   0.149   0.143   0.147   0.149   0.142   0.138   0.135   0.139   0.138   0.140   0.144   0.142   0.141   0.142   0.141   0.141   0.137   0.132   0.139   0.137   0.138   0.137   0.140   0.142
   163.75    0.151   0.151   0.155   0.153   0.156   0.154   0.158   0.160   0.148   0.142   0.143   0.143   0.144   0.144   0.144   0.138   0.136   0.137   0.137   0.138   0.143   0.143   0.143   0.144   0.147   0.145   0.142   0.134   0.138   0.141   0.139   0.138   0.142   0.147   0.138
   159.10    0.153   0.154   0.149   0.153   0.154   0.150   0.153   0.150   0.149   0.149   0.147   0.148   0.150   0.144   0.141   0.140   0.141   0.139   0.141   0.140   0.138   0.137   0.142   0.137   0.143   0.145   0.139   0.136   0.144   0.136   0.135   0.138   0.135   0.141   0.136
   154.45    0.152   0.148   0.152   0.151   0.152   0.149   0.148   0.151   0.149   0.144   0.145   0.139   0.145   0.143   0.142   0.143   0.146   0.147   0.139   0.141   0.139   0.137   0.140   0.138   0.140   0.141   0.142   0.146   0.142   0.142   0.138   0.137   0.140   0.136   0.141
   149.80    0.152   0.151   0.149   0.149   0.149   0.146   0.147   0.142   0.143   0.147   0.146   0.141   0.141   0.140   0.139   0.139   0.144   0.140   0.143   0.141   0.138   0.133   0.138   0.135   0.138   0.135   0.143   0.148   0.143   0.141   0.144   0.135   0.140   0.137   0.142
   145.15    0.149   0.144   0.148   0.148   0.143   0.147   0.154   0.152   0.142   0.146   0.145   0.146   0.143   0.141   0.135   0.136   0.141   0.138   0.142   0.138   0.140   0.139   0.142   0.138   0.137   0.140   0.146   0.146   0.144   0.144   0.143   0.142   0.138   0.138   0.135
   140.50    0.151   0.152   0.152   0.150   0.150   0.154   0.149   0.150   0.146   0.148   0.145   0.143   0.151   0.144   0.138   0.139   0.141   0.140   0.141   0.141   0.144   0.146   0.138   0.138   0.132   0.137   0.145   0.152   0.151   0.153   0.150   0.149   0.142   0.138   0.140
   135.85    0.150   0.146   0.155   0.155   0.155   0.153   0.148   0.148   0.145   0.148   0.144   0.143   0.146   0.146   0.140   0.139   0.140   0.139   0.143   0.143   0.142   0.143   0.138   0.137   0.137   0.141   0.142   0.149   0.149   0.146   0.146   0.149   0.145   0.140   0.143
   131.20    0.149   0.149   0.150   0.153   0.152   0.146   0.151   0.146   0.149   0.148   0.145   0.143   0.143   0.137   0.135   0.140   0.139   0.140   0.145   0.144   0.141   0.137   0.136   0.139   0.138   0.145   0.146   0.145   0.150   0.147   0.149   0.145   0.145   0.141   0.143
   126.55    0.149   0.153   0.150   0.145   0.151   0.156   0.152   0.146   0.145   0.142   0.142   0.139   0.139   0.137   0.137   0.138   0.138   0.137   0.142   0.148   0.146   0.135   0.137   0.138   0.141   0.147   0.143   0.145   0.143   0.148   0.143   0.141   0.146   0.142   0.140
   121.90    0.148   0.149   0.150   0.151   0.151   0.149   0.144   0.143   0.147   0.144   0.141   0.145   0.144   0.142   0.138   0.136   0.138   0.140   0.137   0.139   0.140   0.135   0.143   0.142   0.143   0.145   0.145   0.147   0.147   0.148   0.143   0.142   0.148   0.146   0.144
   117.25    0.144   0.150   0.149   0.152   0.154   0.154   0.145   0.139   0.140   0.139   0.149   0.143   0.144   0.145   0.136   0.140   0.138   0.138   0.137   0.137   0.140   0.139   0.141   0.142   0.141   0.140   0.144   0.144   0.144   0.146   0.142   0.145   0.149   0.141   0.146
   112.60    0.148   0.147   0.153   0.146   0.146   0.148   0.149   0.144   0.146   0.147   0.150   0.148   0.148   0.145   0.144   0.142   0.138   0.136   0.138   0.136   0.139   0.140   0.142   0.139   0.141   0.138   0.134   0.142   0.143   0.144   0.145   0.143   0.140   0.138   0.144
   107.95    0.141   0.146   0.150   0.153   0.152   0.155   0.149   0.146   0.142   0.145   0.155   0.147   0.145   0.146   0.144   0.144   0.145   0.140   0.140   0.134   0.139   0.138   0.137   0.135   0.138   0.135   0.138   0.140   0.140   0.143   0.146   0.143   0.138   0.136   0.137
   103.30    0.143   0.144   0.151   0.150   0.154   0.153   0.147   0.146   0.146   0.146   0.149   0.145   0.142   0.142   0.139   0.138   0.144   0.140   0.140   0.137   0.139   0.139   0.137   0.134   0.136   0.139   0.142   0.141   0.139   0.141   0.141   0.140   0.142   0.137   0.139
    98.65    0.143   0.149   0.148   0.143   0.148   0.150   0.151   0.145   0.145   0.145   0.148   0.145   0.136   0.137   0.139   0.143   0.143   0.140   0.136   0.136   0.132   0.135   0.144   0.137   0.137   0.137   0.137   0.137   0.139   0.142   0.140   0.140   0.140   0.141   0.138
    94.00    0.150   0.147   0.145   0.150   0.150   0.150   0.152   0.146   0.142   0.142   0.145   0.143   0.140   0.142   0.142   0.142   0.142   0.137   0.136   0.132   0.135   0.135   0.144   0.135   0.136   0.140   0.136   0.140   0.138   0.142   0.138   0.141   0.134   0.135   0.137
    89.35    0.146   0.143   0.142   0.144   0.147   0.148   0.152   0.150   0.145   0.141   0.143   0.140   0.136   0.141   0.140   0.141   0.137   0.137   0.135   0.130   0.134   0.134   0.138   0.140   0.139   0.137   0.137   0.134   0.137   0.137   0.136   0.136   0.135   0.133   0.133
    84.70    0.145   0.136   0.134   0.138   0.143   0.144   0.147   0.145   0.143   0.146   0.140   0.135   0.132   0.135   0.143   0.141   0.144   0.141   0.131   0.133   0.132   0.131   0.133   0.138   0.137   0.134   0.132   0.138   0.139   0.139   0.137   0.133   0.134   0.134   0.138
    80.05    0.138   0.135   0.138   0.137   0.143   0.140   0.146   0.143   0.143   0.138   0.137   0.134   0.136   0.137   0.141   0.139   0.142   0.136   0.137   0.138   0.134   0.133   0.129   0.134   0.137   0.135   0.134   0.143   0.137   0.139   0.136   0.131   0.132   0.130   0.130
    75.40    0.139   0.135   0.136   0.139   0.140   0.140   0.134   0.139   0.138   0.138   0.134   0.139   0.143   0.139   0.139   0.142   0.137   0.136   0.136   0.135   0.135   0.130   0.131   0.132   0.136   0.137   0.140   0.136   0.137   0.135   0.131   0.127   0.127   0.127   0.131
    70.75    0.139   0.140   0.141   0.139   0.139   0.144   0.143   0.140   0.137   0.137   0.138   0.140   0.143   0.133   0.137   0.136   0.130   0.133   0.132   0.131   0.131   0.128   0.130   0.133   0.138   0.146   0.143   0.137   0.138   0.135   0.134   0.129   0.131   0.136   0.132
    66.10    0.142   0.140   0.136   0.138   0.143   0.145   0.143   0.140   0.136   0.136   0.139   0.137   0.140   0.139   0.136   0.131   0.133   0.136   0.129   0.132   0.133   0.131   0.131   0.133   0.147   0.147   0.143   0.143   0.138   0.137   0.131   0.134   0.133   0.138   0.133
    61.45    0.146   0.140   0.138   0.139   0.142   0.147   0.145   0.140   0.139   0.135   0.133   0.134   0.132   0.133   0.132   0.133   0.131   0.133   0.132   0.129   0.128   0.135   0.135   0.137   0.142   0.143   0.144   0.142   0.140   0.135   0.138   0.138   0.136   0.138   0.139
    56.80    0.139   0.136   0.136   0.137   0.140   0.141   0.142   0.144   0.136   0.138   0.128   0.133   0.136   0.133   0.132   0.131   0.134   0.134   0.135   0.129   0.132   0.138   0.134   0.137   0.139   0.146   0.143   0.142   0.137   0.136   0.141   0.133   0.132   0.132   0.132
    52.15    0.144   0.138   0.134   0.134   0.138   0.139   0.144   0.138   0.141   0.137   0.139   0.140   0.139   0.136   0.132   0.132   0.137   0.137   0.135   0.133   0.133   0.137   0.133   0.137   0.140   0.140   0.140   0.143   0.139   0.142   0.137   0.135   0.138   0.130   0.132
    47.50    0.142   0.144   0.135   0.138   0.139   0.139   0.138   0.141   0.143   0.143   0.134   0.133   0.134   0.134   0.132   0.133   0.135   0.133   0.129   0.128   0.127   0.130   0.133   0.136   0.140   0.140   0.140   0.148   0.146   0.142   0.143   0.133   0.133   0.132   0.132
    42.85    0.147   0.142   0.138   0.135   0.133   0.140   0.140   0.142   0.141   0.140   0.136   0.137   0.132   0.131   0.133   0.134   0.135   0.134   0.128   0.124   0.130   0.131   0.131   0.139   0.136   0.139   0.142   0.142   0.144   0.138   0.138   0.136   0.137   0.133   0.135
    38.20    0.147   0.142   0.145   0.136   0.137   0.140   0.139   0.140   0.143   0.136   0.139   0.134   0.135   0.137   0.137   0.136   0.141   0.131   0.128   0.124   0.129   0.132   0.138   0.138   0.136   0.138   0.143   0.136   0.138   0.137   0.136   0.138   0.135   0.137   0.132
    33.55    0.147   0.148   0.145   0.139   0.135   0.133   0.142   0.136   0.139   0.139   0.140   0.134   0.129   0.140   0.136   0.139   0.133   0.128   0.126   0.127   0.133   0.133   0.136   0.138   0.141   0.142   0.140   0.136   0.137   0.141   0.143   0.142   0.139   0.142   0.137
    28.90    0.150   0.150   0.147   0.136   0.134   0.140   0.142   0.141   0.138   0.145   0.141   0.137   0.134   0.134   0.135   0.130   0.130   0.136   0.133   0.131   0.129   0.134   0.135   0.134   0.138   0.143   0.136   0.136   0.141   0.138   0.134   0.131   0.135   0.134   0.131
    24.25    0.142   0.143   0.146   0.140   0.137   0.141   0.140   0.139   0.146   0.140   0.139   0.135   0.136   0.128   0.128   0.128   0.132   0.134   0.133   0.133   0.133   0.135   0.137   0.131   0.139   0.142   0.142   0.142   0.140   0.132   0.135   0.132   0.140   0.136   0.133
    19.60    0.140   0.144   0.144   0.137   0.138   0.145   0.139   0.141   0.141   0.135   0.132   0.135   0.135   0.139   0.132   0.134   0.132   0.130   0.135   0.136   0.139   0.137   0.136   0.134   0.138   0.137   0.141   0.135   0.133   0.134   0.134   0.136   0.135   0.138   0.134
    14.95    0.141   0.142   0.139   0.137   0.139   0.144   0.136   0.140   0.141   0.130   0.134   0.131   0.139   0.137   0.134   0.139   0.134   0.133   0.138   0.139   0.144   0.134   0.136   0.140   0.139   0.137   0.132   0.133   0.133   0.133   0.133   0.134   0.135   0.141   0.135
    10.30    0.143   0.142   0.138   0.133   0.135   0.133   0.134   0.135   0.135   0.130   0.137   0.137   0.139   0.138   0.136   0.141   0.144   0.135   0.143   0.143   0.144   0.141   0.134   0.139   0.138   0.135   0.137   0.133   0.131   0.135   0.137   0.135   0.141   0.143   0.133
     5.65    0.141   0.140   0.141   0.137   0.132   0.133   0.132   0.134   0.134   0.135   0.137   0.142   0.150   0.144   0.142   0.137   0.145   0.143   0.140   0.145   0.139   0.137   0.135   0.135   0.135   0.139   0.136   0.135   0.136   0.135   0.135   0.134   0.136   0.138   0.136
     1.00    0.140   0.142   0.146   0.137   0.134   0.131   0.128   0.133   0.140   0.144   0.141   0.142   0.147   0.144   0.147   0.147   0.143   0.143   0.145   0.143   0.140   0.135   0.135   0.135   0.134   0.136   0.133   0.133   0.140   0.135   0.132   0.134   0.135   0.135   0.135

   Mean standard deviation across all grid points:
      u component:    0.309 m/s
      v component:    0.225 m/s
      w component:    0.140 m/s


U-component (X) statistics from the interpolated hub point:

   Mean =   9.9913 m/s
   TI   =   3.0849 %


Processing complete.  5897 CPU seconds used.
