
This summary file was generated by TurbSim (from OpenFAST-v3.5.3) on 20-Apr-2025 at 07:58:26.


Runtime Options:

-228636811  Random seed #1
    RANLUX  Type of random number generator
         F  Output binary HH turbulence parameters?
         F  Output formatted turbulence parameters?
         F  Output AeroDyn HH files?
         T  Output AeroDyn FF files?
         F  Output BLADED FF files?
         F  Output tower data?
         F  Output HAWC FF files?
         F  Output formatted FF files?
         T  Output coherent turbulence time step file?
 0 -  NONE  IEC turbulence models scaled to exact specified standard deviation


Turbine/Model Specifications:

        37  Vertical grid-point matrix dimension
        35  Horizontal grid-point matrix dimension
     0.250  Time step [seconds]
   900.000  Analysis time [seconds]
   900.000  Usable output time [seconds]
    89.350  Hub height [m]
   167.400  Grid height [m]
   158.100  Grid width [m]
     0.000  Vertical flow angle [degrees]
     0.000  Horizontal flow angle [degrees]


Meteorological Boundary Conditions:

    TIMESR  User-input time series spectral model
       N/A  IEC standard
       N/A  IEC turbulence characteristic
       N/A  IEC turbulence type
       N/A  IEC Extreme Turbulence Model (ETM) "c" parameter [m/s]
       PL   Wind profile type
    90.000  Reference height [m]
    10.000  Reference wind speed [m/s]
       N/A  Jet height [m]
     0.120  Power law exponent
     0.030  Surface roughness length [m]


Non-IEC Meteorological Boundary Conditions:

    45.000  Site latitude [degrees]
     0.050  Gradient Richardson number
     0.480  Friction or shear velocity [m/s]
       N/A  Mixing layer depth [m]
       N/A  Mean hub u'w' Reynolds stress
       N/A  Mean hub u'v' Reynolds stress
       N/A  Mean hub v'w' Reynolds stress


Spatial Coherence Models:

       IEC  u-component coherence model
       IEC  v-component coherence model
       IEC  w-component coherence model
(   12.000, 0.353E-03)  u-component coherence parameters
(   12.000, 0.353E-03)  v-component coherence parameters
(   12.000, 0.353E-03)  w-component coherence parameters
       N/A  Coherence exponent


Coherent Turbulence Scaling Parameters:

.\EventData
            Name of the path containing the coherent turbulence data files
       les  Type of coherent turbulence data files
     1.000  Disturbance scale (ratio of wave height to rotor diameter)
     0.500  Fractional location of tower centerline from right
     0.500  Fractional location of hub height from the bottom of the dataset
    30.000  Minimum start time for coherent structures [seconds]


Profiles from User-Defined Time-Series Input:

  Height   Wind Speed   Horizontal Angle   Vertical Angle
   (m)        (m/s)          (deg)              (deg)    
  ------   ----------   ----------------   --------------
   94.00      10.00          -0.63               -0.00


You have requested that the following file(s) be generated:

   /kfs3/scratch/agupta/Projects/RL_Incubator/FinalRuns_Veer/Seed4/./FFSim_Seed4/Cond00_v10.0_PL0.12_TI7.5/Case2_wdirp04/Seed_1/TurbSim/HighT13.bts (AeroDyn/TurbSim full-field wind file)


Turbulence Simulation Scaling Parameter Summary:

   Turbulence model used                            =  User-input time series
   Gradient Richardson number                       =    0.050
   Monin-Obukhov (M-O) z/L parameter                =    0.067
   Monin-Obukhov (M-O) length scale                 = 1340.250 m
   Mean wind speed at hub height                    =    9.991 m/s

   Wind profile type                                =  Power law
   Power law exponent                               =    0.120
   Mean shear across rotor disk                     =    0.019 (m/s)/m
   Assumed rotor diameter                           =  158.100 m
   Surface roughness length                         =    0.030 m

   Nyquist frequency of turbulent wind field        =    2.000 Hz

   Number of time steps in the FFT                  =     3600
   Number of time steps output                      =     3600
   Number of points simulated                       =     1296


Mean Flow Angles:

   Vertical   =   0.0 degrees
   Horizontal =   0.0 degrees

Mean Wind Speed Profile:

   Height    Wind Speed   Horizontal Angle  Vertical Angle  U-comp (X)   V-comp (Y)   W-comp (Z)
     (m)        (m/s)         (degrees)       (degrees)       (m/s)        (m/s)        (m/s)   
   ------    ----------   ----------------  --------------  ----------   ----------   ----------
    168.4       10.78            0.00            0.00         10.78         0.00         0.00
    163.7       10.74            0.00            0.00         10.74         0.00         0.00
    159.1       10.71            0.00            0.00         10.71         0.00         0.00
    154.4       10.67            0.00            0.00         10.67         0.00         0.00
    149.8       10.63            0.00            0.00         10.63         0.00         0.00
    145.1       10.59            0.00            0.00         10.59         0.00         0.00
    140.5       10.55            0.00            0.00         10.55         0.00         0.00
    135.8       10.51            0.00            0.00         10.51         0.00         0.00
    131.2       10.46            0.00            0.00         10.46         0.00         0.00
    126.5       10.42            0.00            0.00         10.42         0.00         0.00
    121.9       10.37            0.00            0.00         10.37         0.00         0.00
    117.2       10.32            0.00            0.00         10.32         0.00         0.00
    112.6       10.27            0.00            0.00         10.27         0.00         0.00
    107.9       10.22            0.00            0.00         10.22         0.00         0.00
    103.3       10.17            0.00            0.00         10.17         0.00         0.00
     98.6       10.11            0.00            0.00         10.11         0.00         0.00
     94.0       10.05            0.00            0.00         10.05         0.00         0.00
     89.3        9.99            0.00            0.00          9.99         0.00         0.00
     84.7        9.93            0.00            0.00          9.93         0.00         0.00
     80.0        9.86            0.00            0.00          9.86         0.00         0.00
     75.4        9.79            0.00            0.00          9.79         0.00         0.00
     70.7        9.72            0.00            0.00          9.72         0.00         0.00
     66.1        9.64            0.00            0.00          9.64         0.00         0.00
     61.4        9.55            0.00            0.00          9.55         0.00         0.00
     56.8        9.46            0.00            0.00          9.46         0.00         0.00
     52.1        9.37            0.00            0.00          9.37         0.00         0.00
     47.5        9.26            0.00            0.00          9.26         0.00         0.00
     42.8        9.15            0.00            0.00          9.15         0.00         0.00
     38.2        9.02            0.00            0.00          9.02         0.00         0.00
     33.5        8.88            0.00            0.00          8.88         0.00         0.00
     28.9        8.73            0.00            0.00          8.73         0.00         0.00
     24.2        8.54            0.00            0.00          8.54         0.00         0.00
     19.6        8.33            0.00            0.00          8.33         0.00         0.00
     14.9        8.06            0.00            0.00          8.06         0.00         0.00
     10.3        7.71            0.00            0.00          7.71         0.00         0.00
      5.6        7.17            0.00            0.00          7.17         0.00         0.00
      1.0        5.83            0.00            0.00          5.83         0.00         0.00


Harvested Random Seeds after Generation of the Random Numbers:

     65026800 K 1
            0 K 2


Hub-Height Simulated Turbulence Statistical Summary:

   Type of Wind        Min (m/s)   Mean (m/s)    Max (m/s)  Sigma (m/s)       TI (%)
   ----------------    ---------   ----------    ---------  -----------       ------
   Longitudinal (u)         7.98         9.99        11.93        0.646        6.461
   Lateral (v)             -2.03         0.00         1.68        0.557        5.572
   Vertical (w)            -1.30         0.00         1.13        0.367        3.675
   U component              7.98         9.99        11.93        0.646        6.461
   V component             -2.03         0.00         1.68        0.557        5.572
   W component             -1.30         0.00         1.13        0.367        3.675
   Horizontal (U&V)         8.03        10.01        11.94        0.644        6.436
   Total                    8.03        10.01        11.96        0.644        6.432

                       Min Reynolds     Mean Reynolds    Max Reynolds    Correlation
   Product             Stress (m/s)^2   Stress (m/s)^2   Stress (m/s)^2  Coefficient
   ----------------    --------------   --------------   --------------  -----------
   u'w'                     -1.237            -0.016             1.587        -0.069
   u'v'                     -2.463            -0.039             2.598        -0.109
   v'w'                     -1.355            -0.005             0.889        -0.023


   Friction Velocity (Ustar)  =      0.128 m/s
   Maximum Instantaneous TKE  =      2.742 (m/s)^2
   Maximum Instantaneous CTKE =      1.333 (m/s)^2


Grid Point Variance Summary:

   Y-coord  -79.05  -74.40  -69.75  -65.10  -60.45  -55.80  -51.15  -46.50  -41.85  -37.20  -32.55  -27.90  -23.25  -18.60  -13.95   -9.30   -4.65    0.00    4.65    9.30   13.95   18.60   23.25   27.90   32.55   37.20   41.85   46.50   51.15   55.80   60.45   65.10   69.75   74.40   79.05

   Height   Standard deviation at grid points for the u component:
   168.40    0.597   0.567   0.585   0.604   0.556   0.546   0.575   0.547   0.527   0.551   0.608   0.624   0.654   0.654   0.658   0.621   0.632   0.615   0.579   0.600   0.621   0.606   0.589   0.613   0.619   0.632   0.639   0.659   0.699   0.710   0.695   0.677   0.679   0.631   0.649
   163.75    0.590   0.537   0.572   0.566   0.573   0.561   0.575   0.531   0.535   0.572   0.607   0.576   0.610   0.590   0.639   0.633   0.612   0.600   0.609   0.618   0.627   0.604   0.616   0.617   0.608   0.613   0.635   0.637   0.679   0.653   0.663   0.652   0.620   0.627   0.658
   159.10    0.583   0.536   0.564   0.577   0.601   0.572   0.540   0.539   0.534   0.548   0.604   0.614   0.587   0.610   0.638   0.601   0.592   0.595   0.620   0.612   0.554   0.606   0.605   0.612   0.596   0.619   0.611   0.614   0.656   0.644   0.629   0.644   0.606   0.639   0.646
   154.45    0.582   0.562   0.563   0.547   0.579   0.541   0.557   0.525   0.522   0.549   0.592   0.645   0.650   0.646   0.593   0.602   0.601   0.575   0.596   0.568   0.569   0.596   0.581   0.623   0.611   0.605   0.633   0.656   0.621   0.604   0.606   0.626   0.621   0.666   0.624
   149.80    0.616   0.583   0.593   0.547   0.557   0.531   0.540   0.525   0.530   0.555   0.583   0.638   0.656   0.619   0.602   0.609   0.575   0.576   0.565   0.592   0.587   0.565   0.586   0.599   0.632   0.609   0.639   0.634   0.604   0.598   0.605   0.614   0.605   0.611   0.642
   145.15    0.605   0.602   0.554   0.575   0.533   0.535   0.533   0.525   0.563   0.573   0.597   0.652   0.654   0.630   0.587   0.589   0.550   0.594   0.590   0.550   0.596   0.575   0.609   0.624   0.623   0.656   0.642   0.620   0.613   0.589   0.613   0.631   0.610   0.621   0.635
   140.50    0.634   0.597   0.567   0.556   0.534   0.538   0.556   0.534   0.561   0.545   0.578   0.626   0.639   0.618   0.602   0.605   0.597   0.624   0.592   0.608   0.605   0.641   0.638   0.671   0.670   0.664   0.654   0.625   0.612   0.618   0.621   0.599   0.612   0.619   0.657
   135.85    0.595   0.594   0.580   0.552   0.548   0.522   0.544   0.549   0.562   0.593   0.580   0.590   0.614   0.583   0.606   0.608   0.595   0.577   0.621   0.641   0.621   0.617   0.622   0.643   0.679   0.679   0.680   0.663   0.634   0.626   0.631   0.643   0.613   0.620   0.652
   131.20    0.579   0.579   0.586   0.540   0.560   0.514   0.500   0.511   0.546   0.584   0.615   0.617   0.596   0.601   0.654   0.656   0.591   0.594   0.603   0.639   0.615   0.612   0.623   0.656   0.698   0.713   0.679   0.664   0.621   0.618   0.638   0.649   0.647   0.626   0.608
   126.55    0.584   0.562   0.582   0.571   0.569   0.566   0.538   0.526   0.580   0.609   0.658   0.685   0.650   0.649   0.650   0.624   0.641   0.627   0.613   0.645   0.668   0.649   0.657   0.693   0.714   0.704   0.674   0.638   0.642   0.626   0.641   0.650   0.627   0.597   0.585
   121.90    0.542   0.549   0.603   0.595   0.590   0.582   0.560   0.571   0.609   0.660   0.660   0.688   0.674   0.657   0.636   0.619   0.600   0.664   0.658   0.683   0.658   0.712   0.705   0.682   0.705   0.681   0.674   0.656   0.654   0.637   0.627   0.640   0.589   0.591   0.591
   117.25    0.552   0.579   0.618   0.629   0.560   0.577   0.565   0.619   0.652   0.672   0.667   0.669   0.678   0.663   0.646   0.623   0.626   0.680   0.683   0.677   0.674   0.693   0.699   0.654   0.702   0.677   0.664   0.641   0.651   0.614   0.606   0.644   0.610   0.610   0.583
   112.60    0.577   0.577   0.612   0.601   0.602   0.590   0.615   0.627   0.620   0.689   0.706   0.693   0.694   0.662   0.680   0.661   0.664   0.678   0.688   0.670   0.655   0.684   0.668   0.671   0.675   0.694   0.691   0.649   0.652   0.623   0.626   0.614   0.597   0.598   0.580
   107.95    0.630   0.637   0.618   0.635   0.580   0.584   0.626   0.602   0.636   0.684   0.721   0.723   0.694   0.714   0.729   0.689   0.700   0.720   0.667   0.660   0.646   0.688   0.679   0.708   0.686   0.709   0.663   0.660   0.684   0.631   0.615   0.631   0.598   0.608   0.595
   103.30    0.622   0.647   0.626   0.630   0.627   0.590   0.593   0.644   0.626   0.659   0.682   0.757   0.689   0.722   0.751   0.705   0.681   0.697   0.684   0.666   0.660   0.665   0.656   0.670   0.682   0.665   0.650   0.660   0.666   0.623   0.624   0.610   0.612   0.596   0.645
    98.65    0.645   0.646   0.682   0.654   0.648   0.593   0.631   0.646   0.633   0.663   0.684   0.741   0.731   0.762   0.764   0.738   0.682   0.677   0.660   0.655   0.658   0.657   0.628   0.638   0.656   0.666   0.642   0.661   0.632   0.601   0.605   0.595   0.601   0.592   0.616
    94.00    0.657   0.685   0.701   0.695   0.680   0.697   0.672   0.675   0.632   0.638   0.698   0.705   0.745   0.766   0.729   0.713   0.651   0.665   0.635   0.636   0.654   0.640   0.656   0.688   0.681   0.650   0.663   0.668   0.661   0.623   0.584   0.584   0.585   0.575   0.633
    89.35    0.632   0.681   0.677   0.704   0.697   0.707   0.715   0.723   0.664   0.651   0.695   0.746   0.758   0.740   0.742   0.686   0.679   0.646   0.659   0.663   0.643   0.679   0.652   0.678   0.677   0.630   0.664   0.664   0.629   0.612   0.642   0.610   0.609   0.584   0.587
    84.70    0.607   0.652   0.694   0.719   0.728   0.748   0.749   0.702   0.700   0.691   0.722   0.720   0.750   0.693   0.689   0.691   0.660   0.669   0.688   0.658   0.659   0.687   0.663   0.675   0.655   0.651   0.642   0.618   0.627   0.598   0.587   0.616   0.597   0.596   0.599
    80.05    0.623   0.623   0.643   0.723   0.726   0.715   0.723   0.762   0.732   0.782   0.729   0.722   0.744   0.758   0.696   0.699   0.674   0.658   0.667   0.643   0.661   0.688   0.699   0.657   0.672   0.635   0.598   0.583   0.602   0.593   0.590   0.603   0.584   0.605   0.642
    75.40    0.649   0.646   0.660   0.681   0.689   0.728   0.769   0.762   0.761   0.787   0.756   0.733   0.761   0.761   0.742   0.690   0.693   0.695   0.707   0.706   0.722   0.689   0.685   0.692   0.648   0.635   0.620   0.621   0.612   0.606   0.601   0.615   0.594   0.601   0.613
    70.75    0.662   0.690   0.726   0.712   0.698   0.741   0.730   0.732   0.725   0.748   0.750   0.745   0.776   0.784   0.747   0.777   0.728   0.743   0.738   0.708   0.747   0.739   0.738   0.696   0.666   0.624   0.623   0.632   0.590   0.623   0.610   0.621   0.607   0.581   0.597
    66.10    0.691   0.670   0.667   0.689   0.701   0.698   0.692   0.656   0.707   0.698   0.738   0.750   0.779   0.771   0.773   0.766   0.775   0.735   0.725   0.720   0.760   0.782   0.751   0.698   0.695   0.645   0.597   0.608   0.573   0.620   0.637   0.632   0.645   0.611   0.582
    61.45    0.704   0.660   0.640   0.664   0.675   0.647   0.651   0.677   0.688   0.695   0.667   0.722   0.752   0.751   0.774   0.766   0.779   0.778   0.765   0.695   0.715   0.733   0.718   0.723   0.707   0.668   0.623   0.607   0.607   0.591   0.613   0.639   0.628   0.634   0.628
    56.80    0.649   0.639   0.595   0.604   0.630   0.663   0.660   0.682   0.679   0.690   0.681   0.710   0.708   0.746   0.747   0.784   0.773   0.758   0.727   0.699   0.681   0.700   0.693   0.710   0.732   0.693   0.656   0.670   0.639   0.647   0.611   0.644   0.631   0.599   0.597
    52.15    0.656   0.643   0.601   0.621   0.607   0.641   0.643   0.676   0.656   0.667   0.665   0.633   0.682   0.695   0.757   0.776   0.764   0.741   0.753   0.711   0.726   0.670   0.674   0.667   0.675   0.638   0.662   0.679   0.645   0.641   0.646   0.611   0.598   0.596   0.587
    47.50    0.664   0.653   0.645   0.649   0.611   0.645   0.606   0.632   0.663   0.649   0.627   0.663   0.657   0.660   0.724   0.765   0.751   0.772   0.731   0.720   0.688   0.649   0.658   0.665   0.652   0.652   0.680   0.674   0.635   0.638   0.631   0.590   0.580   0.590   0.582
    42.85    0.687   0.663   0.661   0.655   0.626   0.666   0.622   0.600   0.646   0.650   0.636   0.679   0.657   0.667   0.681   0.737   0.753   0.736   0.731   0.743   0.668   0.678   0.649   0.636   0.644   0.638   0.634   0.646   0.646   0.608   0.596   0.620   0.591   0.565   0.566
    38.20    0.658   0.679   0.650   0.654   0.624   0.621   0.631   0.612   0.598   0.643   0.617   0.634   0.647   0.652   0.695   0.701   0.675   0.688   0.698   0.702   0.682   0.688   0.670   0.669   0.628   0.642   0.664   0.635   0.619   0.604   0.576   0.571   0.544   0.572   0.559
    33.55    0.692   0.651   0.657   0.638   0.611   0.603   0.614   0.626   0.612   0.604   0.624   0.640   0.611   0.663   0.692   0.658   0.660   0.681   0.645   0.618   0.653   0.684   0.642   0.687   0.690   0.672   0.658   0.630   0.606   0.606   0.582   0.566   0.558   0.550   0.537
    28.90    0.662   0.665   0.657   0.663   0.625   0.585   0.584   0.605   0.600   0.612   0.598   0.628   0.677   0.693   0.672   0.660   0.643   0.621   0.628   0.602   0.622   0.636   0.593   0.644   0.670   0.656   0.675   0.657   0.617   0.617   0.609   0.585   0.543   0.538   0.570
    24.25    0.660   0.683   0.668   0.647   0.592   0.619   0.587   0.603   0.599   0.596   0.627   0.646   0.685   0.653   0.633   0.630   0.600   0.576   0.577   0.557   0.588   0.603   0.596   0.616   0.649   0.669   0.653   0.633   0.586   0.639   0.584   0.562   0.542   0.562   0.548
    19.60    0.643   0.642   0.630   0.684   0.618   0.616   0.593   0.628   0.580   0.558   0.597   0.607   0.611   0.631   0.607   0.599   0.576   0.549   0.542   0.543   0.576   0.547   0.574   0.623   0.637   0.685   0.691   0.653   0.633   0.631   0.610   0.568   0.566   0.564   0.537
    14.95    0.667   0.681   0.677   0.661   0.640   0.637   0.602   0.624   0.612   0.601   0.589   0.604   0.598   0.603   0.578   0.546   0.566   0.543   0.556   0.571   0.548   0.555   0.570   0.625   0.648   0.671   0.660   0.641   0.627   0.634   0.615   0.590   0.584   0.561   0.569
    10.30    0.668   0.648   0.655   0.650   0.678   0.658   0.629   0.602   0.609   0.583   0.537   0.586   0.570   0.585   0.551   0.565   0.534   0.571   0.555   0.576   0.567   0.543   0.565   0.624   0.666   0.672   0.636   0.615   0.653   0.611   0.586   0.577   0.628   0.607   0.608
     5.65    0.639   0.665   0.706   0.635   0.646   0.638   0.585   0.588   0.577   0.560   0.562   0.576   0.580   0.590   0.560   0.596   0.574   0.549   0.527   0.555   0.538   0.532   0.577   0.638   0.600   0.670   0.655   0.585   0.619   0.593   0.620   0.594   0.606   0.633   0.600
     1.00    0.660   0.663   0.701   0.649   0.610   0.613   0.599   0.557   0.568   0.599   0.570   0.566   0.568   0.588   0.596   0.579   0.604   0.569   0.527   0.562   0.556   0.564   0.568   0.622   0.615   0.637   0.599   0.580   0.600   0.597   0.594   0.631   0.623   0.616   0.613

   Height   Standard deviation at grid points for the v component:
   168.40    0.622   0.626   0.608   0.602   0.613   0.601   0.582   0.588   0.590   0.619   0.592   0.606   0.626   0.570   0.536   0.556   0.562   0.524   0.538   0.534   0.574   0.578   0.570   0.545   0.564   0.583   0.632   0.629   0.596   0.608   0.564   0.594   0.591   0.600   0.632
   163.75    0.601   0.610   0.573   0.628   0.607   0.602   0.607   0.613   0.604   0.597   0.604   0.642   0.627   0.616   0.568   0.544   0.526   0.514   0.499   0.518   0.541   0.557   0.569   0.576   0.598   0.639   0.594   0.603   0.608   0.594   0.558   0.593   0.595   0.570   0.597
   159.10    0.627   0.622   0.597   0.591   0.580   0.610   0.630   0.623   0.603   0.632   0.594   0.629   0.651   0.621   0.609   0.561   0.548   0.538   0.493   0.530   0.528   0.543   0.560   0.594   0.606   0.624   0.630   0.621   0.618   0.588   0.555   0.579   0.570   0.591   0.558
   154.45    0.631   0.670   0.594   0.606   0.621   0.650   0.613   0.633   0.622   0.648   0.618   0.640   0.607   0.619   0.567   0.566   0.544   0.530   0.498   0.544   0.526   0.549   0.566   0.615   0.623   0.653   0.656   0.639   0.614   0.587   0.584   0.613   0.585   0.566   0.535
   149.80    0.655   0.672   0.638   0.628   0.657   0.661   0.611   0.642   0.640   0.653   0.650   0.638   0.629   0.645   0.624   0.588   0.553   0.529   0.549   0.534   0.577   0.584   0.605   0.599   0.622   0.632   0.671   0.652   0.624   0.625   0.593   0.588   0.566   0.561   0.539
   145.15    0.653   0.677   0.665   0.649   0.702   0.681   0.673   0.665   0.636   0.677   0.634   0.645   0.651   0.644   0.639   0.619   0.602   0.556   0.554   0.595   0.602   0.595   0.609   0.593   0.569   0.616   0.612   0.644   0.629   0.638   0.610   0.607   0.593   0.563   0.556
   140.50    0.634   0.680   0.679   0.703   0.680   0.658   0.684   0.676   0.666   0.684   0.661   0.661   0.656   0.667   0.663   0.677   0.642   0.619   0.609   0.622   0.634   0.643   0.657   0.608   0.568   0.586   0.583   0.600   0.595   0.623   0.627   0.613   0.595   0.583   0.583
   135.85    0.640   0.656   0.679   0.709   0.677   0.636   0.657   0.646   0.671   0.664   0.673   0.681   0.646   0.633   0.636   0.628   0.645   0.613   0.616   0.675   0.663   0.651   0.648   0.628   0.573   0.533   0.587   0.611   0.591   0.603   0.621   0.582   0.582   0.575   0.568
   131.20    0.658   0.671   0.681   0.695   0.681   0.668   0.646   0.637   0.629   0.630   0.640   0.677   0.689   0.683   0.645   0.629   0.635   0.635   0.634   0.638   0.655   0.649   0.629   0.606   0.588   0.572   0.568   0.593   0.577   0.598   0.586   0.589   0.591   0.582   0.584
   126.55    0.655   0.655   0.674   0.659   0.655   0.667   0.685   0.659   0.671   0.647   0.606   0.636   0.646   0.636   0.646   0.618   0.663   0.643   0.617   0.637   0.638   0.614   0.604   0.627   0.607   0.589   0.589   0.579   0.566   0.564   0.585   0.579   0.571   0.596   0.586
   121.90    0.599   0.608   0.664   0.674   0.655   0.639   0.673   0.686   0.670   0.637   0.591   0.620   0.591   0.630   0.631   0.657   0.657   0.654   0.633   0.667   0.641   0.620   0.608   0.593   0.586   0.606   0.615   0.572   0.575   0.572   0.597   0.607   0.593   0.589   0.592
   117.25    0.577   0.582   0.638   0.659   0.670   0.648   0.660   0.643   0.654   0.643   0.633   0.598   0.647   0.681   0.681   0.635   0.672   0.681   0.672   0.652   0.640   0.591   0.623   0.589   0.572   0.588   0.603   0.578   0.589   0.587   0.587   0.615   0.603   0.593   0.600
   112.60    0.585   0.629   0.621   0.665   0.635   0.639   0.656   0.619   0.586   0.635   0.617   0.618   0.664   0.695   0.636   0.654   0.685   0.669   0.669   0.628   0.619   0.597   0.586   0.610   0.577   0.587   0.575   0.597   0.587   0.586   0.594   0.623   0.620   0.618   0.569
   107.95    0.612   0.605   0.631   0.642   0.625   0.623   0.623   0.583   0.570   0.571   0.615   0.626   0.634   0.641   0.619   0.643   0.630   0.629   0.633   0.594   0.583   0.595   0.576   0.567   0.569   0.564   0.596   0.575   0.599   0.584   0.590   0.628   0.634   0.614   0.609
   103.30    0.583   0.610   0.614   0.617   0.604   0.640   0.597   0.589   0.560   0.545   0.580   0.601   0.578   0.598   0.639   0.613   0.622   0.602   0.601   0.586   0.566   0.563   0.563   0.584   0.562   0.598   0.593   0.576   0.595   0.588   0.573   0.588   0.608   0.604   0.610
    98.65    0.566   0.574   0.571   0.589   0.626   0.635   0.625   0.582   0.538   0.551   0.563   0.589   0.577   0.582   0.603   0.616   0.579   0.573   0.587   0.601   0.550   0.566   0.564   0.562   0.583   0.587   0.575   0.564   0.572   0.573   0.575   0.576   0.553   0.566   0.591
    94.00    0.536   0.549   0.572   0.574   0.595   0.614   0.593   0.579   0.556   0.545   0.557   0.570   0.570   0.579   0.588   0.593   0.559   0.590   0.596   0.590   0.575   0.568   0.544   0.558   0.541   0.565   0.555   0.525   0.552   0.542   0.573   0.574   0.586   0.572   0.587
    89.35    0.536   0.553   0.543   0.552   0.561   0.584   0.572   0.575   0.571   0.548   0.533   0.566   0.546   0.570   0.581   0.568   0.563   0.557   0.577   0.591   0.593   0.560   0.539   0.558   0.552   0.518   0.523   0.505   0.535   0.545   0.573   0.575   0.573   0.567   0.561
    84.70    0.536   0.532   0.533   0.545   0.557   0.558   0.558   0.563   0.538   0.522   0.522   0.541   0.552   0.558   0.592   0.573   0.577   0.549   0.551   0.555   0.586   0.561   0.548   0.520   0.544   0.551   0.519   0.516   0.542   0.552   0.564   0.551   0.542   0.570   0.597
    80.05    0.544   0.544   0.529   0.548   0.552   0.532   0.542   0.537   0.547   0.532   0.545   0.526   0.575   0.586   0.585   0.556   0.585   0.557   0.566   0.568   0.567   0.563   0.559   0.517   0.552   0.552   0.579   0.570   0.552   0.553   0.535   0.567   0.560   0.571   0.618
    75.40    0.578   0.576   0.568   0.558   0.543   0.549   0.521   0.533   0.517   0.568   0.551   0.559   0.606   0.583   0.574   0.543   0.556   0.555   0.585   0.584   0.569   0.531   0.591   0.573   0.574   0.568   0.600   0.566   0.566   0.555   0.531   0.553   0.565   0.585   0.597
    70.75    0.581   0.575   0.556   0.562   0.532   0.526   0.540   0.539   0.544   0.552   0.554   0.583   0.582   0.589   0.592   0.540   0.566   0.560   0.582   0.557   0.564   0.572   0.585   0.579   0.591   0.582   0.582   0.580   0.560   0.589   0.568   0.579   0.567   0.613   0.630
    66.10    0.598   0.612   0.609   0.555   0.550   0.558   0.539   0.561   0.593   0.583   0.551   0.534   0.551   0.570   0.617   0.579   0.574   0.563   0.580   0.600   0.584   0.597   0.606   0.607   0.595   0.570   0.579   0.571   0.556   0.586   0.584   0.578   0.589   0.622   0.643
    61.45    0.579   0.589   0.579   0.554   0.546   0.574   0.559   0.558   0.564   0.580   0.566   0.551   0.546   0.594   0.583   0.590   0.583   0.609   0.582   0.606   0.617   0.601   0.583   0.600   0.603   0.573   0.579   0.603   0.576   0.605   0.581   0.607   0.628   0.659   0.628
    56.80    0.602   0.587   0.610   0.582   0.561   0.549   0.528   0.528   0.543   0.552   0.539   0.546   0.586   0.584   0.609   0.610   0.562   0.571   0.601   0.598   0.616   0.597   0.574   0.584   0.575   0.594   0.583   0.582   0.595   0.627   0.604   0.642   0.657   0.662   0.619
    52.15    0.569   0.592   0.592   0.578   0.579   0.547   0.521   0.534   0.545   0.528   0.546   0.547   0.580   0.594   0.599   0.598   0.611   0.577   0.599   0.616   0.627   0.611   0.581   0.579   0.590   0.611   0.615   0.595   0.599   0.605   0.624   0.649   0.640   0.664   0.654
    47.50    0.579   0.578   0.568   0.584   0.568   0.535   0.525   0.545   0.550   0.550   0.537   0.564   0.573   0.605   0.609   0.599   0.610   0.601   0.592   0.592   0.611   0.620   0.569   0.561   0.577   0.597   0.600   0.602   0.632   0.629   0.634   0.649   0.646   0.667   0.603
    42.85    0.583   0.557   0.563   0.575   0.541   0.543   0.534   0.529   0.535   0.507   0.531   0.548   0.583   0.611   0.608   0.610   0.598   0.598   0.597   0.582   0.602   0.578   0.559   0.563   0.572   0.585   0.583   0.598   0.647   0.639   0.637   0.663   0.671   0.646   0.597
    38.20    0.562   0.557   0.578   0.589   0.558   0.547   0.544   0.518   0.555   0.511   0.526   0.555   0.590   0.616   0.624   0.622   0.630   0.583   0.583   0.585   0.567   0.596   0.596   0.561   0.591   0.596   0.606   0.627   0.631   0.632   0.629   0.662   0.655   0.588   0.623
    33.55    0.603   0.607   0.609   0.592   0.572   0.589   0.557   0.537   0.581   0.520   0.546   0.584   0.595   0.598   0.604   0.563   0.590   0.573   0.568   0.583   0.603   0.585   0.630   0.605   0.598   0.592   0.612   0.651   0.628   0.629   0.647   0.666   0.653   0.611   0.596
    28.90    0.595   0.575   0.567   0.553   0.586   0.592   0.613   0.579   0.595   0.579   0.564   0.574   0.571   0.573   0.591   0.600   0.601   0.554   0.578   0.577   0.600   0.616   0.633   0.643   0.618   0.621   0.634   0.662   0.639   0.649   0.661   0.668   0.638   0.595   0.612
    24.25    0.563   0.569   0.580   0.548   0.577   0.606   0.608   0.611   0.608   0.586   0.591   0.580   0.572   0.587   0.569   0.589   0.608   0.560   0.571   0.587   0.604   0.621   0.644   0.648   0.652   0.649   0.649   0.676   0.659   0.669   0.640   0.644   0.621   0.609   0.602
    19.60    0.603   0.605   0.558   0.551   0.582   0.600   0.568   0.621   0.613   0.583   0.587   0.586   0.612   0.617   0.606   0.574   0.577   0.582   0.592   0.609   0.608   0.621   0.640   0.672   0.645   0.638   0.636   0.663   0.660   0.643   0.628   0.624   0.600   0.630   0.601
    14.95    0.560   0.585   0.572   0.578   0.589   0.595   0.588   0.609   0.626   0.572   0.566   0.566   0.581   0.612   0.605   0.606   0.590   0.585   0.593   0.614   0.608   0.620   0.651   0.642   0.642   0.635   0.643   0.644   0.651   0.657   0.616   0.595   0.610   0.659   0.646
    10.30    0.580   0.593   0.599   0.592   0.629   0.610   0.610   0.592   0.582   0.603   0.551   0.552   0.563   0.548   0.609   0.623   0.624   0.599   0.626   0.610   0.624   0.632   0.671   0.644   0.651   0.643   0.660   0.668   0.679   0.670   0.652   0.627   0.641   0.657   0.648
     5.65    0.593   0.610   0.630   0.600   0.620   0.603   0.599   0.575   0.551   0.576   0.572   0.568   0.577   0.603   0.614   0.636   0.617   0.608   0.629   0.652   0.670   0.683   0.675   0.666   0.659   0.667   0.658   0.671   0.679   0.687   0.662   0.667   0.664   0.651   0.624
     1.00    0.572   0.599   0.604   0.579   0.582   0.603   0.602   0.566   0.550   0.586   0.589   0.579   0.596   0.616   0.628   0.649   0.635   0.645   0.652   0.669   0.689   0.671   0.662   0.643   0.662   0.665   0.678   0.686   0.666   0.683   0.666   0.679   0.663   0.660   0.646

   Height   Standard deviation at grid points for the w component:
   168.40    0.339   0.336   0.337   0.341   0.341   0.344   0.356   0.348   0.361   0.370   0.344   0.360   0.365   0.365   0.354   0.360   0.363   0.367   0.378   0.377   0.376   0.376   0.357   0.352   0.353   0.350   0.338   0.346   0.341   0.356   0.342   0.340   0.336   0.359   0.356
   163.75    0.340   0.340   0.353   0.345   0.344   0.348   0.354   0.344   0.347   0.356   0.364   0.344   0.357   0.366   0.355   0.362   0.371   0.382   0.379   0.375   0.369   0.355   0.368   0.365   0.361   0.345   0.354   0.336   0.340   0.340   0.336   0.336   0.354   0.353   0.348
   159.10    0.355   0.363   0.355   0.353   0.347   0.350   0.354   0.346   0.355   0.368   0.363   0.345   0.365   0.372   0.364   0.369   0.368   0.374   0.371   0.365   0.371   0.378   0.360   0.362   0.351   0.336   0.353   0.348   0.330   0.336   0.352   0.327   0.341   0.350   0.358
   154.45    0.360   0.366   0.356   0.353   0.351   0.348   0.366   0.359   0.357   0.358   0.355   0.345   0.349   0.351   0.351   0.355   0.366   0.367   0.371   0.355   0.363   0.358   0.370   0.362   0.337   0.350   0.345   0.344   0.347   0.347   0.327   0.338   0.339   0.356   0.363
   149.80    0.356   0.358   0.340   0.352   0.351   0.359   0.352   0.350   0.365   0.372   0.357   0.352   0.339   0.347   0.350   0.364   0.372   0.357   0.363   0.350   0.363   0.358   0.364   0.358   0.356   0.346   0.336   0.350   0.356   0.360   0.342   0.336   0.347   0.354   0.342
   145.15    0.363   0.362   0.351   0.359   0.357   0.355   0.354   0.359   0.363   0.360   0.355   0.349   0.355   0.360   0.366   0.371   0.371   0.351   0.350   0.343   0.349   0.373   0.373   0.358   0.355   0.357   0.343   0.355   0.363   0.341   0.348   0.351   0.359   0.356   0.351
   140.50    0.360   0.366   0.357   0.367   0.354   0.346   0.352   0.360   0.368   0.359   0.349   0.364   0.353   0.361   0.358   0.370   0.369   0.360   0.345   0.368   0.349   0.366   0.372   0.374   0.378   0.367   0.356   0.368   0.359   0.348   0.340   0.352   0.343   0.364   0.362
   135.85    0.367   0.364   0.364   0.362   0.358   0.353   0.356   0.354   0.354   0.343   0.349   0.363   0.350   0.349   0.348   0.365   0.360   0.362   0.352   0.364   0.373   0.372   0.381   0.375   0.366   0.368   0.348   0.374   0.363   0.349   0.348   0.345   0.342   0.357   0.361
   131.20    0.377   0.384   0.343   0.344   0.350   0.354   0.355   0.362   0.353   0.374   0.364   0.350   0.353   0.344   0.348   0.360   0.367   0.367   0.353   0.364   0.357   0.375   0.381   0.367   0.373   0.364   0.364   0.370   0.370   0.351   0.350   0.344   0.356   0.354   0.358
   126.55    0.378   0.375   0.350   0.355   0.367   0.355   0.366   0.354   0.364   0.362   0.353   0.360   0.343   0.351   0.363   0.355   0.365   0.363   0.357   0.347   0.368   0.376   0.369   0.368   0.376   0.370   0.354   0.362   0.360   0.336   0.339   0.332   0.347   0.350   0.349
   121.90    0.356   0.376   0.359   0.356   0.360   0.356   0.370   0.359   0.365   0.363   0.363   0.342   0.347   0.358   0.351   0.354   0.354   0.348   0.349   0.351   0.360   0.374   0.360   0.359   0.366   0.366   0.359   0.365   0.362   0.355   0.360   0.341   0.338   0.338   0.344
   117.25    0.357   0.361   0.361   0.365   0.378   0.361   0.373   0.372   0.362   0.366   0.357   0.346   0.358   0.344   0.364   0.371   0.357   0.358   0.343   0.344   0.357   0.372   0.373   0.380   0.380   0.369   0.360   0.357   0.356   0.329   0.354   0.365   0.359   0.351   0.351
   112.60    0.340   0.338   0.335   0.356   0.371   0.364   0.361   0.370   0.366   0.378   0.371   0.360   0.363   0.347   0.361   0.364   0.362   0.359   0.352   0.359   0.355   0.368   0.365   0.379   0.397   0.364   0.355   0.345   0.356   0.351   0.357   0.358   0.362   0.366   0.343
   107.95    0.347   0.338   0.349   0.370   0.371   0.354   0.365   0.361   0.366   0.376   0.363   0.369   0.352   0.351   0.358   0.358   0.352   0.366   0.345   0.363   0.360   0.355   0.370   0.377   0.372   0.364   0.369   0.370   0.381   0.353   0.354   0.373   0.360   0.368   0.387
   103.30    0.346   0.361   0.362   0.379   0.375   0.366   0.374   0.366   0.371   0.359   0.361   0.363   0.355   0.342   0.352   0.367   0.361   0.360   0.354   0.353   0.361   0.367   0.375   0.394   0.371   0.353   0.369   0.369   0.356   0.361   0.358   0.368   0.365   0.392   0.402
    98.65    0.361   0.350   0.352   0.366   0.378   0.366   0.382   0.378   0.382   0.355   0.362   0.369   0.359   0.344   0.357   0.365   0.359   0.380   0.361   0.370   0.390   0.378   0.377   0.380   0.364   0.366   0.373   0.369   0.382   0.363   0.357   0.355   0.391   0.385   0.406
    94.00    0.350   0.351   0.346   0.359   0.364   0.381   0.383   0.372   0.358   0.346   0.366   0.364   0.354   0.364   0.375   0.368   0.374   0.373   0.364   0.378   0.361   0.367   0.369   0.380   0.372   0.349   0.373   0.381   0.376   0.384   0.376   0.378   0.387   0.381   0.398
    89.35    0.357   0.352   0.363   0.368   0.366   0.377   0.385   0.378   0.358   0.370   0.396   0.385   0.353   0.369   0.369   0.378   0.364   0.367   0.367   0.368   0.376   0.354   0.377   0.373   0.365   0.360   0.359   0.375   0.380   0.400   0.390   0.382   0.388   0.411   0.392
    84.70    0.352   0.355   0.364   0.367   0.360   0.356   0.373   0.361   0.360   0.374   0.381   0.359   0.371   0.366   0.380   0.374   0.383   0.370   0.357   0.353   0.356   0.363   0.349   0.368   0.372   0.388   0.371   0.372   0.393   0.394   0.393   0.387   0.391   0.405   0.401
    80.05    0.350   0.354   0.364   0.379   0.359   0.352   0.365   0.361   0.355   0.364   0.375   0.356   0.356   0.370   0.386   0.372   0.366   0.355   0.364   0.358   0.354   0.354   0.348   0.359   0.372   0.386   0.361   0.384   0.388   0.389   0.389   0.386   0.399   0.417   0.419
    75.40    0.367   0.365   0.364   0.374   0.366   0.355   0.350   0.355   0.353   0.351   0.350   0.348   0.346   0.363   0.361   0.375   0.356   0.357   0.361   0.342   0.331   0.339   0.338   0.346   0.358   0.378   0.365   0.394   0.388   0.392   0.382   0.397   0.397   0.410   0.406
    70.75    0.362   0.360   0.355   0.361   0.367   0.358   0.371   0.342   0.354   0.345   0.356   0.346   0.342   0.355   0.357   0.364   0.348   0.358   0.358   0.346   0.335   0.339   0.353   0.351   0.352   0.361   0.364   0.374   0.380   0.391   0.391   0.394   0.402   0.405   0.416
    66.10    0.370   0.358   0.366   0.365   0.349   0.351   0.354   0.357   0.359   0.350   0.345   0.347   0.353   0.351   0.347   0.352   0.362   0.353   0.346   0.342   0.340   0.344   0.342   0.354   0.349   0.354   0.358   0.373   0.373   0.375   0.379   0.383   0.394   0.399   0.414
    61.45    0.377   0.352   0.349   0.347   0.342   0.343   0.356   0.342   0.352   0.360   0.368   0.373   0.365   0.369   0.339   0.344   0.367   0.375   0.364   0.355   0.345   0.357   0.353   0.349   0.357   0.350   0.357   0.370   0.386   0.367   0.382   0.382   0.381   0.386   0.393
    56.80    0.378   0.357   0.350   0.355   0.347   0.352   0.361   0.357   0.347   0.349   0.379   0.364   0.357   0.363   0.346   0.341   0.350   0.349   0.356   0.356   0.371   0.365   0.365   0.358   0.366   0.346   0.350   0.360   0.379   0.390   0.400   0.373   0.381   0.385   0.394
    52.15    0.364   0.362   0.363   0.355   0.353   0.349   0.339   0.352   0.361   0.348   0.365   0.362   0.357   0.353   0.353   0.346   0.341   0.351   0.365   0.360   0.372   0.367   0.356   0.365   0.367   0.361   0.358   0.373   0.376   0.383   0.378   0.371   0.375   0.383   0.378
    47.50    0.369   0.363   0.363   0.352   0.353   0.356   0.333   0.357   0.366   0.347   0.354   0.368   0.351   0.350   0.363   0.355   0.356   0.346   0.356   0.357   0.361   0.374   0.364   0.381   0.370   0.369   0.374   0.378   0.379   0.382   0.373   0.358   0.360   0.375   0.375
    42.85    0.363   0.361   0.362   0.358   0.355   0.349   0.352   0.349   0.364   0.354   0.346   0.365   0.354   0.350   0.361   0.355   0.367   0.373   0.360   0.353   0.358   0.360   0.356   0.363   0.377   0.370   0.380   0.377   0.385   0.374   0.369   0.356   0.369   0.363   0.369
    38.20    0.369   0.365   0.377   0.376   0.350   0.356   0.343   0.341   0.361   0.356   0.346   0.349   0.351   0.354   0.367   0.358   0.352   0.366   0.359   0.363   0.354   0.365   0.360   0.375   0.380   0.396   0.377   0.387   0.376   0.378   0.388   0.378   0.366   0.353   0.366
    33.55    0.356   0.362   0.376   0.372   0.368   0.351   0.360   0.348   0.340   0.341   0.345   0.341   0.362   0.362   0.361   0.359   0.363   0.354   0.360   0.376   0.369   0.369   0.364   0.373   0.382   0.379   0.380   0.386   0.375   0.371   0.380   0.362   0.344   0.355   0.354
    28.90    0.359   0.364   0.368   0.366   0.348   0.357   0.355   0.340   0.343   0.345   0.360   0.359   0.345   0.357   0.354   0.355   0.342   0.357   0.371   0.377   0.369   0.375   0.369   0.387   0.394   0.388   0.385   0.396   0.368   0.388   0.377   0.351   0.351   0.359   0.342
    24.25    0.371   0.359   0.360   0.361   0.364   0.366   0.365   0.354   0.355   0.351   0.364   0.355   0.373   0.368   0.365   0.369   0.355   0.368   0.388   0.375   0.385   0.372   0.374   0.381   0.381   0.377   0.391   0.379   0.369   0.376   0.360   0.359   0.352   0.356   0.350
    19.60    0.349   0.358   0.345   0.355   0.359   0.353   0.364   0.360   0.373   0.386   0.393   0.378   0.366   0.378   0.366   0.371   0.376   0.366   0.390   0.394   0.368   0.370   0.369   0.381   0.365   0.370   0.364   0.358   0.364   0.369   0.369   0.364   0.359   0.357   0.348
    14.95    0.353   0.337   0.342   0.346   0.364   0.370   0.371   0.359   0.371   0.392   0.394   0.384   0.370   0.379   0.379   0.382   0.377   0.373   0.375   0.377   0.371   0.355   0.369   0.385   0.361   0.375   0.363   0.361   0.375   0.372   0.370   0.358   0.366   0.352   0.343
    10.30    0.344   0.345   0.351   0.353   0.356   0.373   0.366   0.357   0.356   0.376   0.387   0.377   0.385   0.383   0.380   0.387   0.382   0.393   0.379   0.363   0.374   0.356   0.354   0.379   0.363   0.382   0.372   0.374   0.381   0.386   0.364   0.352   0.354   0.355   0.346
     5.65    0.340   0.360   0.360   0.347   0.351   0.357   0.377   0.371   0.367   0.384   0.389   0.385   0.392   0.390   0.370   0.392   0.384   0.400   0.388   0.353   0.356   0.364   0.377   0.382   0.377   0.374   0.369   0.381   0.361   0.376   0.369   0.362   0.359   0.364   0.350
     1.00    0.361   0.359   0.353   0.353   0.348   0.355   0.374   0.370   0.364   0.374   0.381   0.393   0.397   0.374   0.372   0.391   0.385   0.375   0.389   0.377   0.375   0.373   0.377   0.379   0.372   0.362   0.373   0.381   0.358   0.367   0.364   0.364   0.360   0.357   0.352

   Mean standard deviation across all grid points:
      u component:    0.637 m/s
      v component:    0.599 m/s
      w component:    0.363 m/s


U-component (X) statistics from the interpolated hub point:

   Mean =   9.9913 m/s
   TI   =   6.4611 %


Processing complete.  6154.3 CPU seconds used.
