
This summary file was generated by TurbSim (from OpenFAST-v3.5.3) on 20-Apr-2025 at 11:02:50.


Runtime Options:

-228636811  Random seed #1
    RANLUX  Type of random number generator
         F  Output binary HH turbulence parameters?
         F  Output formatted turbulence parameters?
         F  Output AeroDyn HH files?
         T  Output AeroDyn FF files?
         F  Output BLADED FF files?
         F  Output tower data?
         F  Output HAWC FF files?
         F  Output formatted FF files?
         T  Output coherent turbulence time step file?
 0 -  NONE  IEC turbulence models scaled to exact specified standard deviation


Turbine/Model Specifications:

        37  Vertical grid-point matrix dimension
        35  Horizontal grid-point matrix dimension
     0.250  Time step [seconds]
   900.000  Analysis time [seconds]
   900.000  Usable output time [seconds]
    89.350  Hub height [m]
   167.400  Grid height [m]
   158.100  Grid width [m]
     0.000  Vertical flow angle [degrees]
     0.000  Horizontal flow angle [degrees]


Meteorological Boundary Conditions:

    TIMESR  User-input time series spectral model
       N/A  IEC standard
       N/A  IEC turbulence characteristic
       N/A  IEC turbulence type
       N/A  IEC Extreme Turbulence Model (ETM) "c" parameter [m/s]
       PL   Wind profile type
    90.000  Reference height [m]
    10.000  Reference wind speed [m/s]
       N/A  Jet height [m]
     0.120  Power law exponent
     0.030  Surface roughness length [m]


Non-IEC Meteorological Boundary Conditions:

    45.000  Site latitude [degrees]
     0.050  Gradient Richardson number
     0.480  Friction or shear velocity [m/s]
       N/A  Mixing layer depth [m]
       N/A  Mean hub u'w' Reynolds stress
       N/A  Mean hub u'v' Reynolds stress
       N/A  Mean hub v'w' Reynolds stress


Spatial Coherence Models:

       IEC  u-component coherence model
       IEC  v-component coherence model
       IEC  w-component coherence model
(   12.000, 0.353E-03)  u-component coherence parameters
(   12.000, 0.353E-03)  v-component coherence parameters
(   12.000, 0.353E-03)  w-component coherence parameters
       N/A  Coherence exponent


Coherent Turbulence Scaling Parameters:

.\EventData
            Name of the path containing the coherent turbulence data files
       les  Type of coherent turbulence data files
     1.000  Disturbance scale (ratio of wave height to rotor diameter)
     0.500  Fractional location of tower centerline from right
     0.500  Fractional location of hub height from the bottom of the dataset
    30.000  Minimum start time for coherent structures [seconds]


Profiles from User-Defined Time-Series Input:

  Height   Wind Speed   Horizontal Angle   Vertical Angle
   (m)        (m/s)          (deg)              (deg)    
  ------   ----------   ----------------   --------------
   94.00      10.00          -0.63               -0.00


You have requested that the following file(s) be generated:

   /kfs3/scratch/agupta/Projects/RL_Incubator/FinalRuns_Veer/Seed4/./FFSim_Seed4/Cond00_v10.0_PL0.12_TI7.5/Case3_wdirp06/Seed_1/TurbSim/HighT18.bts (AeroDyn/TurbSim full-field wind file)


Turbulence Simulation Scaling Parameter Summary:

   Turbulence model used                            =  User-input time series
   Gradient Richardson number                       =    0.050
   Monin-Obukhov (M-O) z/L parameter                =    0.067
   Monin-Obukhov (M-O) length scale                 = 1340.250 m
   Mean wind speed at hub height                    =    9.991 m/s

   Wind profile type                                =  Power law
   Power law exponent                               =    0.120
   Mean shear across rotor disk                     =    0.019 (m/s)/m
   Assumed rotor diameter                           =  158.100 m
   Surface roughness length                         =    0.030 m

   Nyquist frequency of turbulent wind field        =    2.000 Hz

   Number of time steps in the FFT                  =     3600
   Number of time steps output                      =     3600
   Number of points simulated                       =     1296


Mean Flow Angles:

   Vertical   =   0.0 degrees
   Horizontal =   0.0 degrees

Mean Wind Speed Profile:

   Height    Wind Speed   Horizontal Angle  Vertical Angle  U-comp (X)   V-comp (Y)   W-comp (Z)
     (m)        (m/s)         (degrees)       (degrees)       (m/s)        (m/s)        (m/s)   
   ------    ----------   ----------------  --------------  ----------   ----------   ----------
    168.4       10.78            0.00            0.00         10.78         0.00         0.00
    163.7       10.74            0.00            0.00         10.74         0.00         0.00
    159.1       10.71            0.00            0.00         10.71         0.00         0.00
    154.4       10.67            0.00            0.00         10.67         0.00         0.00
    149.8       10.63            0.00            0.00         10.63         0.00         0.00
    145.1       10.59            0.00            0.00         10.59         0.00         0.00
    140.5       10.55            0.00            0.00         10.55         0.00         0.00
    135.8       10.51            0.00            0.00         10.51         0.00         0.00
    131.2       10.46            0.00            0.00         10.46         0.00         0.00
    126.5       10.42            0.00            0.00         10.42         0.00         0.00
    121.9       10.37            0.00            0.00         10.37         0.00         0.00
    117.2       10.32            0.00            0.00         10.32         0.00         0.00
    112.6       10.27            0.00            0.00         10.27         0.00         0.00
    107.9       10.22            0.00            0.00         10.22         0.00         0.00
    103.3       10.17            0.00            0.00         10.17         0.00         0.00
     98.6       10.11            0.00            0.00         10.11         0.00         0.00
     94.0       10.05            0.00            0.00         10.05         0.00         0.00
     89.3        9.99            0.00            0.00          9.99         0.00         0.00
     84.7        9.93            0.00            0.00          9.93         0.00         0.00
     80.0        9.86            0.00            0.00          9.86         0.00         0.00
     75.4        9.79            0.00            0.00          9.79         0.00         0.00
     70.7        9.72            0.00            0.00          9.72         0.00         0.00
     66.1        9.64            0.00            0.00          9.64         0.00         0.00
     61.4        9.55            0.00            0.00          9.55         0.00         0.00
     56.8        9.46            0.00            0.00          9.46         0.00         0.00
     52.1        9.37            0.00            0.00          9.37         0.00         0.00
     47.5        9.26            0.00            0.00          9.26         0.00         0.00
     42.8        9.15            0.00            0.00          9.15         0.00         0.00
     38.2        9.02            0.00            0.00          9.02         0.00         0.00
     33.5        8.88            0.00            0.00          8.88         0.00         0.00
     28.9        8.73            0.00            0.00          8.73         0.00         0.00
     24.2        8.54            0.00            0.00          8.54         0.00         0.00
     19.6        8.33            0.00            0.00          8.33         0.00         0.00
     14.9        8.06            0.00            0.00          8.06         0.00         0.00
     10.3        7.71            0.00            0.00          7.71         0.00         0.00
      5.6        7.17            0.00            0.00          7.17         0.00         0.00
      1.0        5.83            0.00            0.00          5.83         0.00         0.00


Harvested Random Seeds after Generation of the Random Numbers:

     65026800 K 1
            0 K 2


Hub-Height Simulated Turbulence Statistical Summary:

   Type of Wind        Min (m/s)   Mean (m/s)    Max (m/s)  Sigma (m/s)       TI (%)
   ----------------    ---------   ----------    ---------  -----------       ------
   Longitudinal (u)         7.74         9.99        11.72        0.630        6.308
   Lateral (v)             -2.24        -0.00         1.99        0.598        5.984
   Vertical (w)            -1.27         0.00         1.10        0.365        3.655
   U component              7.74         9.99        11.72        0.630        6.308
   V component             -2.24        -0.00         1.99        0.598        5.984
   W component             -1.27         0.00         1.10        0.365        3.655
   Horizontal (U&V)         7.74        10.01        11.73        0.632        6.311
   Total                    7.75        10.02        11.74        0.631        6.304

                       Min Reynolds     Mean Reynolds    Max Reynolds    Correlation
   Product             Stress (m/s)^2   Stress (m/s)^2   Stress (m/s)^2  Coefficient
   ----------------    --------------   --------------   --------------  -----------
   u'w'                     -1.403            -0.037             1.821        -0.161
   u'v'                     -2.181            -0.015             1.694        -0.040
   v'w'                     -1.572             0.001             1.005         0.004


   Friction Velocity (Ustar)  =      0.192 m/s
   Maximum Instantaneous TKE  =      3.151 (m/s)^2
   Maximum Instantaneous CTKE =      1.298 (m/s)^2


Grid Point Variance Summary:

   Y-coord  -79.05  -74.40  -69.75  -65.10  -60.45  -55.80  -51.15  -46.50  -41.85  -37.20  -32.55  -27.90  -23.25  -18.60  -13.95   -9.30   -4.65    0.00    4.65    9.30   13.95   18.60   23.25   27.90   32.55   37.20   41.85   46.50   51.15   55.80   60.45   65.10   69.75   74.40   79.05

   Height   Standard deviation at grid points for the u component:
   168.40    0.688   0.674   0.688   0.667   0.652   0.656   0.646   0.635   0.660   0.655   0.696   0.718   0.719   0.676   0.696   0.638   0.592   0.584   0.595   0.657   0.680   0.654   0.624   0.627   0.648   0.665   0.680   0.681   0.700   0.682   0.732   0.722   0.717   0.711   0.709
   163.75    0.702   0.678   0.667   0.663   0.657   0.635   0.662   0.651   0.664   0.649   0.687   0.670   0.699   0.661   0.668   0.636   0.627   0.602   0.609   0.653   0.677   0.655   0.624   0.611   0.640   0.667   0.671   0.656   0.695   0.670   0.702   0.708   0.692   0.693   0.700
   159.10    0.697   0.644   0.678   0.674   0.652   0.641   0.684   0.660   0.652   0.652   0.686   0.653   0.640   0.663   0.671   0.642   0.612   0.605   0.617   0.632   0.592   0.631   0.607   0.636   0.614   0.657   0.660   0.648   0.693   0.671   0.694   0.701   0.671   0.674   0.705
   154.45    0.664   0.657   0.659   0.623   0.649   0.633   0.665   0.668   0.646   0.659   0.641   0.685   0.674   0.660   0.638   0.630   0.590   0.615   0.595   0.608   0.638   0.618   0.635   0.652   0.660   0.651   0.648   0.644   0.653   0.678   0.679   0.702   0.714   0.683   0.688
   149.80    0.678   0.670   0.636   0.620   0.584   0.610   0.645   0.652   0.603   0.664   0.632   0.661   0.667   0.657   0.644   0.623   0.596   0.602   0.598   0.586   0.628   0.612   0.616   0.627   0.662   0.628   0.628   0.642   0.637   0.668   0.687   0.685   0.684   0.682   0.673
   145.15    0.659   0.643   0.619   0.645   0.604   0.636   0.609   0.635   0.615   0.637   0.620   0.651   0.649   0.633   0.601   0.631   0.584   0.605   0.592   0.566   0.600   0.615   0.641   0.637   0.661   0.678   0.652   0.665   0.648   0.656   0.670   0.686   0.667   0.690   0.707
   140.50    0.640   0.598   0.634   0.650   0.625   0.606   0.643   0.627   0.638   0.599   0.603   0.617   0.639   0.601   0.620   0.592   0.579   0.614   0.617   0.643   0.652   0.647   0.660   0.682   0.689   0.682   0.656   0.673   0.680   0.673   0.679   0.640   0.655   0.668   0.688
   135.85    0.648   0.649   0.665   0.646   0.635   0.618   0.621   0.599   0.614   0.644   0.633   0.605   0.610   0.586   0.594   0.581   0.588   0.609   0.603   0.615   0.613   0.667   0.646   0.697   0.704   0.701   0.714   0.706   0.691   0.675   0.677   0.699   0.671   0.682   0.688
   131.20    0.636   0.644   0.664   0.651   0.620   0.600   0.621   0.613   0.598   0.633   0.639   0.618   0.608   0.597   0.585   0.587   0.609   0.579   0.615   0.646   0.651   0.673   0.681   0.701   0.720   0.764   0.736   0.727   0.696   0.703   0.694   0.708   0.682   0.676   0.645
   126.55    0.709   0.676   0.701   0.659   0.655   0.670   0.642   0.630   0.611   0.594   0.603   0.597   0.611   0.614   0.606   0.581   0.609   0.598   0.636   0.680   0.708   0.702   0.667   0.719   0.748   0.745   0.738   0.718   0.716   0.717   0.703   0.684   0.701   0.700   0.663
   121.90    0.684   0.697   0.711   0.640   0.636   0.678   0.627   0.620   0.623   0.604   0.565   0.592   0.591   0.597   0.583   0.539   0.599   0.605   0.606   0.669   0.709   0.749   0.729   0.704   0.705   0.749   0.768   0.742   0.722   0.723   0.722   0.723   0.702   0.690   0.706
   117.25    0.668   0.672   0.669   0.619   0.593   0.644   0.614   0.629   0.627   0.578   0.568   0.561   0.601   0.609   0.573   0.586   0.606   0.634   0.633   0.634   0.666   0.736   0.723   0.724   0.737   0.757   0.790   0.718   0.710   0.723   0.743   0.786   0.745   0.749   0.735
   112.60    0.695   0.650   0.617   0.632   0.641   0.650   0.645   0.617   0.610   0.613   0.558   0.580   0.593   0.557   0.560   0.623   0.607   0.590   0.581   0.638   0.701   0.730   0.709   0.740   0.727   0.765   0.766   0.719   0.727   0.719   0.733   0.768   0.751   0.739   0.719
   107.95    0.719   0.700   0.657   0.651   0.649   0.629   0.666   0.675   0.623   0.622   0.617   0.609   0.575   0.579   0.597   0.625   0.643   0.578   0.622   0.671   0.678   0.721   0.766   0.741   0.717   0.730   0.718   0.725   0.738   0.739   0.742   0.784   0.746   0.715   0.706
   103.30    0.726   0.702   0.665   0.689   0.625   0.622   0.655   0.679   0.643   0.637   0.617   0.615   0.603   0.626   0.658   0.662   0.646   0.614   0.664   0.687   0.691   0.728   0.715   0.712   0.738   0.716   0.648   0.691   0.714   0.728   0.757   0.724   0.713   0.719   0.730
    98.65    0.750   0.739   0.714   0.729   0.670   0.623   0.606   0.661   0.639   0.639   0.631   0.633   0.640   0.650   0.698   0.683   0.674   0.673   0.656   0.681   0.682   0.706   0.690   0.726   0.715   0.734   0.719   0.716   0.716   0.681   0.701   0.680   0.692   0.704   0.713
    94.00    0.783   0.779   0.767   0.777   0.674   0.665   0.631   0.662   0.644   0.625   0.646   0.651   0.693   0.706   0.699   0.704   0.676   0.657   0.670   0.694   0.715   0.712   0.684   0.744   0.745   0.708   0.718   0.700   0.688   0.677   0.662   0.653   0.683   0.696   0.711
    89.35    0.756   0.760   0.758   0.733   0.704   0.681   0.641   0.638   0.655   0.647   0.667   0.673   0.678   0.682   0.663   0.678   0.658   0.630   0.683   0.704   0.733   0.751   0.737   0.741   0.765   0.724   0.734   0.732   0.678   0.680   0.697   0.664   0.667   0.662   0.672
    84.70    0.762   0.722   0.748   0.755   0.734   0.753   0.675   0.657   0.662   0.661   0.639   0.647   0.671   0.668   0.689   0.688   0.623   0.643   0.673   0.675   0.721   0.735   0.752   0.706   0.717   0.736   0.752   0.707   0.716   0.714   0.688   0.690   0.644   0.662   0.648
    80.05    0.753   0.787   0.735   0.738   0.726   0.695   0.690   0.700   0.671   0.701   0.660   0.666   0.659   0.688   0.675   0.654   0.625   0.629   0.635   0.662   0.671   0.679   0.705   0.702   0.743   0.692   0.711   0.664   0.679   0.689   0.691   0.704   0.663   0.680   0.721
    75.40    0.786   0.753   0.749   0.724   0.705   0.706   0.707   0.702   0.677   0.673   0.659   0.653   0.695   0.708   0.674   0.657   0.625   0.620   0.627   0.617   0.656   0.684   0.671   0.710   0.676   0.686   0.714   0.688   0.674   0.703   0.687   0.705   0.679   0.686   0.721
    70.75    0.755   0.769   0.771   0.746   0.739   0.711   0.704   0.669   0.664   0.667   0.636   0.688   0.696   0.699   0.705   0.669   0.639   0.624   0.619   0.625   0.639   0.680   0.699   0.656   0.677   0.670   0.700   0.697   0.671   0.689   0.675   0.693   0.681   0.677   0.699
    66.10    0.772   0.794   0.741   0.750   0.745   0.674   0.677   0.653   0.651   0.652   0.670   0.632   0.673   0.681   0.656   0.645   0.684   0.625   0.598   0.618   0.654   0.671   0.720   0.688   0.665   0.636   0.621   0.665   0.666   0.672   0.678   0.661   0.679   0.701   0.678
    61.45    0.770   0.782   0.765   0.724   0.717   0.680   0.645   0.612   0.648   0.668   0.653   0.667   0.661   0.631   0.667   0.629   0.647   0.654   0.648   0.639   0.661   0.689   0.672   0.668   0.656   0.668   0.627   0.642   0.670   0.676   0.669   0.689   0.677   0.714   0.711
    56.80    0.761   0.763   0.760   0.737   0.695   0.717   0.678   0.665   0.665   0.714   0.705   0.706   0.704   0.685   0.658   0.668   0.656   0.636   0.677   0.657   0.679   0.673   0.644   0.688   0.686   0.676   0.637   0.651   0.662   0.707   0.679   0.711   0.706   0.709   0.714
    52.15    0.775   0.786   0.762   0.715   0.691   0.721   0.669   0.683   0.636   0.690   0.716   0.657   0.671   0.705   0.696   0.673   0.673   0.654   0.661   0.672   0.693   0.663   0.648   0.641   0.706   0.649   0.639   0.651   0.658   0.669   0.695   0.686   0.692   0.715   0.700
    47.50    0.822   0.804   0.782   0.746   0.704   0.717   0.681   0.654   0.639   0.654   0.631   0.662   0.636   0.687   0.684   0.654   0.681   0.706   0.683   0.693   0.662   0.666   0.664   0.699   0.702   0.695   0.662   0.668   0.651   0.664   0.686   0.668   0.660   0.712   0.679
    42.85    0.786   0.800   0.749   0.715   0.715   0.710   0.685   0.640   0.630   0.599   0.624   0.633   0.639   0.620   0.634   0.655   0.690   0.708   0.734   0.720   0.665   0.668   0.646   0.680   0.702   0.681   0.644   0.656   0.659   0.655   0.642   0.683   0.664   0.673   0.677
    38.20    0.773   0.786   0.775   0.729   0.717   0.664   0.672   0.617   0.615   0.605   0.599   0.618   0.653   0.667   0.633   0.661   0.674   0.719   0.689   0.675   0.644   0.625   0.607   0.650   0.662   0.686   0.689   0.704   0.674   0.665   0.655   0.661   0.620   0.640   0.679
    33.55    0.822   0.795   0.741   0.750   0.704   0.698   0.687   0.652   0.648   0.612   0.604   0.629   0.649   0.686   0.683   0.667   0.675   0.677   0.672   0.630   0.615   0.652   0.620   0.657   0.698   0.709   0.735   0.709   0.707   0.692   0.653   0.620   0.647   0.629   0.637
    28.90    0.787   0.786   0.756   0.755   0.739   0.709   0.694   0.679   0.635   0.631   0.589   0.593   0.650   0.691   0.699   0.664   0.647   0.653   0.667   0.609   0.629   0.594   0.584   0.598   0.640   0.678   0.723   0.732   0.707   0.721   0.681   0.661   0.643   0.615   0.634
    24.25    0.807   0.812   0.769   0.769   0.715   0.739   0.717   0.695   0.677   0.646   0.613   0.636   0.653   0.647   0.700   0.658   0.638   0.613   0.624   0.637   0.626   0.604   0.628   0.595   0.628   0.678   0.692   0.732   0.715   0.733   0.679   0.649   0.619   0.616   0.619
    19.60    0.786   0.790   0.778   0.746   0.740   0.715   0.746   0.722   0.653   0.618   0.626   0.637   0.653   0.650   0.669   0.654   0.617   0.586   0.618   0.650   0.656   0.650   0.617   0.628   0.642   0.692   0.718   0.714   0.708   0.728   0.692   0.653   0.638   0.630   0.608
    14.95    0.806   0.770   0.788   0.769   0.739   0.769   0.756   0.718   0.696   0.655   0.675   0.668   0.671   0.682   0.663   0.643   0.606   0.606   0.603   0.632   0.615   0.656   0.663   0.624   0.653   0.708   0.683   0.702   0.680   0.688   0.673   0.627   0.620   0.623   0.624
    10.30    0.790   0.789   0.743   0.729   0.756   0.748   0.735   0.720   0.702   0.702   0.668   0.678   0.671   0.677   0.640   0.657   0.622   0.643   0.613   0.617   0.634   0.614   0.623   0.655   0.659   0.688   0.696   0.672   0.720   0.662   0.659   0.640   0.683   0.630   0.641
     5.65    0.760   0.788   0.791   0.739   0.724   0.720   0.694   0.683   0.688   0.680   0.694   0.665   0.648   0.638   0.660   0.685   0.666   0.655   0.574   0.575   0.615   0.581   0.595   0.648   0.621   0.676   0.676   0.665   0.689   0.679   0.702   0.684   0.665   0.694   0.647
     1.00    0.741   0.780   0.775   0.708   0.722   0.716   0.728   0.695   0.687   0.663   0.660   0.649   0.643   0.655   0.640   0.667   0.685   0.625   0.588   0.589   0.574   0.571   0.595   0.626   0.634   0.675   0.658   0.664   0.715   0.701   0.737   0.745   0.671   0.679   0.645

   Height   Standard deviation at grid points for the v component:
   168.40    0.539   0.514   0.512   0.513   0.541   0.544   0.557   0.556   0.565   0.573   0.588   0.603   0.609   0.572   0.560   0.586   0.622   0.581   0.589   0.562   0.611   0.604   0.602   0.569   0.590   0.613   0.669   0.673   0.647   0.628   0.596   0.582   0.601   0.607   0.605
   163.75    0.502   0.501   0.487   0.539   0.565   0.573   0.585   0.568   0.544   0.567   0.585   0.612   0.603   0.598   0.597   0.591   0.602   0.572   0.572   0.569   0.573   0.612   0.604   0.593   0.610   0.656   0.611   0.637   0.652   0.623   0.584   0.600   0.608   0.565   0.586
   159.10    0.519   0.525   0.529   0.528   0.530   0.559   0.575   0.590   0.566   0.573   0.530   0.578   0.619   0.607   0.600   0.602   0.608   0.588   0.554   0.582   0.555   0.578   0.591   0.600   0.614   0.633   0.652   0.629   0.654   0.626   0.609   0.608   0.598   0.612   0.593
   154.45    0.516   0.554   0.528   0.517   0.553   0.572   0.555   0.576   0.575   0.565   0.544   0.584   0.589   0.619   0.578   0.607   0.568   0.562   0.550   0.578   0.596   0.570   0.568   0.619   0.638   0.673   0.698   0.655   0.666   0.635   0.616   0.654   0.635   0.619   0.555
   149.80    0.567   0.584   0.558   0.533   0.554   0.558   0.547   0.571   0.566   0.559   0.564   0.591   0.581   0.597   0.592   0.600   0.579   0.570   0.555   0.558   0.585   0.584   0.592   0.603   0.630   0.648   0.685   0.680   0.671   0.646   0.622   0.623   0.598   0.607   0.567
   145.15    0.548   0.564   0.553   0.544   0.576   0.556   0.553   0.568   0.550   0.548   0.544   0.568   0.558   0.589   0.597   0.602   0.603   0.574   0.556   0.550   0.549   0.559   0.573   0.604   0.585   0.623   0.645   0.671   0.653   0.673   0.632   0.633   0.621   0.578   0.569
   140.50    0.550   0.581   0.560   0.559   0.557   0.562   0.573   0.556   0.547   0.565   0.539   0.539   0.555   0.572   0.622   0.644   0.620   0.596   0.565   0.556   0.569   0.604   0.624   0.632   0.584   0.607   0.599   0.627   0.626   0.632   0.628   0.618   0.600   0.580   0.576
   135.85    0.563   0.560   0.570   0.565   0.542   0.520   0.548   0.544   0.567   0.566   0.561   0.558   0.571   0.590   0.614   0.603   0.619   0.582   0.589   0.614   0.591   0.577   0.601   0.592   0.580   0.578   0.599   0.621   0.611   0.598   0.595   0.579   0.573   0.552   0.537
   131.20    0.577   0.560   0.588   0.587   0.559   0.550   0.554   0.564   0.551   0.543   0.569   0.591   0.634   0.661   0.634   0.630   0.594   0.591   0.601   0.605   0.589   0.589   0.588   0.571   0.585   0.578   0.564   0.600   0.587   0.566   0.578   0.582   0.586   0.577   0.582
   126.55    0.559   0.558   0.583   0.546   0.564   0.570   0.604   0.578   0.572   0.537   0.532   0.564   0.596   0.620   0.634   0.588   0.631   0.599   0.586   0.594   0.607   0.564   0.555   0.582   0.580   0.547   0.567   0.561   0.556   0.538   0.566   0.543   0.568   0.581   0.580
   121.90    0.519   0.534   0.572   0.569   0.569   0.580   0.598   0.612   0.579   0.548   0.522   0.549   0.551   0.594   0.604   0.636   0.621   0.599   0.590   0.648   0.590   0.561   0.542   0.530   0.550   0.550   0.553   0.542   0.559   0.556   0.546   0.565   0.564   0.568   0.579
   117.25    0.494   0.514   0.512   0.539   0.579   0.580   0.609   0.575   0.577   0.558   0.539   0.531   0.589   0.602   0.647   0.610   0.624   0.623   0.615   0.592   0.584   0.537   0.551   0.520   0.519   0.523   0.560   0.572   0.556   0.562   0.537   0.554   0.572   0.544   0.572
   112.60    0.492   0.530   0.506   0.551   0.560   0.574   0.574   0.559   0.540   0.590   0.557   0.550   0.585   0.617   0.609   0.613   0.627   0.591   0.593   0.586   0.564   0.546   0.532   0.551   0.513   0.531   0.522   0.548   0.543   0.530   0.546   0.574   0.589   0.579   0.544
   107.95    0.503   0.508   0.511   0.545   0.548   0.542   0.543   0.535   0.519   0.537   0.578   0.583   0.603   0.606   0.587   0.619   0.616   0.622   0.606   0.568   0.558   0.517   0.509   0.492   0.479   0.492   0.523   0.512   0.529   0.520   0.519   0.559   0.574   0.580   0.579
   103.30    0.480   0.504   0.503   0.528   0.520   0.540   0.530   0.524   0.547   0.539   0.567   0.616   0.595   0.571   0.607   0.602   0.589   0.601   0.586   0.572   0.548   0.537   0.528   0.518   0.472   0.491   0.482   0.511   0.519   0.512   0.520   0.530   0.540   0.546   0.551
    98.65    0.461   0.480   0.505   0.498   0.525   0.543   0.558   0.551   0.533   0.562   0.563   0.593   0.582   0.589   0.605   0.613   0.571   0.562   0.563   0.549   0.540   0.545   0.526   0.494   0.483   0.478   0.482   0.505   0.517   0.503   0.506   0.527   0.494   0.513   0.545
    94.00    0.473   0.477   0.495   0.482   0.489   0.504   0.535   0.554   0.568   0.553   0.556   0.593   0.579   0.604   0.597   0.605   0.578   0.572   0.552   0.544   0.525   0.539   0.515   0.470   0.468   0.488   0.479   0.490   0.515   0.490   0.513   0.501   0.524   0.533   0.535
    89.35    0.467   0.473   0.495   0.489   0.522   0.528   0.523   0.568   0.611   0.571   0.547   0.557   0.576   0.586   0.618   0.584   0.595   0.598   0.570   0.569   0.554   0.528   0.494   0.504   0.493   0.470   0.466   0.481   0.509   0.493   0.514   0.529   0.531   0.532   0.511
    84.70    0.460   0.484   0.477   0.502   0.537   0.537   0.551   0.583   0.590   0.553   0.556   0.542   0.578   0.585   0.610   0.577   0.579   0.600   0.565   0.542   0.551   0.523   0.507   0.501   0.511   0.500   0.488   0.484   0.488   0.503   0.523   0.527   0.522   0.537   0.550
    80.05    0.466   0.479   0.481   0.478   0.517   0.520   0.544   0.567   0.598   0.567   0.576   0.558   0.580   0.592   0.593   0.549   0.569   0.597   0.591   0.558   0.527   0.504   0.523   0.504   0.500   0.491   0.503   0.496   0.485   0.517   0.509   0.538   0.538   0.552   0.589
    75.40    0.477   0.486   0.484   0.513   0.508   0.524   0.532   0.557   0.569   0.562   0.548   0.579   0.608   0.591   0.598   0.564   0.610   0.582   0.605   0.603   0.556   0.530   0.546   0.509   0.497   0.490   0.495   0.488   0.505   0.499   0.496   0.522   0.543   0.553   0.567
    70.75    0.496   0.500   0.483   0.512   0.499   0.521   0.545   0.568   0.566   0.559   0.584   0.578   0.587   0.573   0.593   0.573   0.589   0.567   0.614   0.570   0.532   0.520   0.520   0.519   0.498   0.504   0.485   0.500   0.485   0.515   0.499   0.511   0.521   0.573   0.589
    66.10    0.500   0.505   0.508   0.479   0.502   0.535   0.550   0.577   0.591   0.554   0.549   0.560   0.570   0.571   0.580   0.581   0.561   0.569   0.570   0.559   0.519   0.548   0.536   0.529   0.521   0.496   0.505   0.496   0.487   0.496   0.503   0.507   0.536   0.561   0.591
    61.45    0.470   0.495   0.484   0.489   0.512   0.542   0.542   0.558   0.552   0.539   0.537   0.538   0.564   0.553   0.557   0.548   0.540   0.572   0.544   0.551   0.531   0.524   0.536   0.542   0.514   0.492   0.487   0.509   0.496   0.509   0.502   0.525   0.565   0.579   0.572
    56.80    0.534   0.508   0.521   0.526   0.504   0.526   0.507   0.530   0.570   0.540   0.531   0.530   0.548   0.551   0.555   0.551   0.547   0.549   0.556   0.521   0.540   0.523   0.524   0.545   0.508   0.516   0.489   0.488   0.508   0.516   0.508   0.537   0.569   0.585   0.582
    52.15    0.501   0.515   0.506   0.536   0.553   0.532   0.526   0.523   0.516   0.533   0.551   0.511   0.554   0.553   0.545   0.542   0.562   0.534   0.535   0.524   0.545   0.529   0.531   0.516   0.485   0.498   0.505   0.504   0.506   0.502   0.506   0.554   0.550   0.593   0.591
    47.50    0.533   0.514   0.531   0.529   0.553   0.516   0.510   0.499   0.533   0.542   0.543   0.558   0.558   0.546   0.542   0.529   0.547   0.536   0.525   0.500   0.527   0.520   0.481   0.474   0.491   0.486   0.484   0.500   0.511   0.519   0.528   0.549   0.564   0.581   0.550
    42.85    0.521   0.494   0.512   0.537   0.515   0.491   0.508   0.515   0.547   0.502   0.551   0.557   0.555   0.555   0.535   0.527   0.510   0.504   0.498   0.520   0.506   0.502   0.494   0.485   0.478   0.493   0.478   0.489   0.523   0.527   0.518   0.553   0.576   0.573   0.551
    38.20    0.514   0.493   0.521   0.535   0.503   0.501   0.517   0.508   0.531   0.515   0.537   0.530   0.532   0.542   0.547   0.542   0.533   0.497   0.500   0.528   0.503   0.511   0.507   0.479   0.484   0.494   0.492   0.493   0.507   0.513   0.530   0.558   0.560   0.528   0.555
    33.55    0.528   0.522   0.513   0.521   0.537   0.543   0.504   0.501   0.535   0.492   0.504   0.510   0.525   0.551   0.536   0.490   0.521   0.498   0.502   0.511   0.519   0.508   0.515   0.493   0.488   0.483   0.481   0.519   0.496   0.517   0.529   0.564   0.528   0.552   0.543
    28.90    0.526   0.499   0.504   0.500   0.540   0.540   0.524   0.489   0.520   0.503   0.522   0.509   0.518   0.532   0.529   0.538   0.513   0.472   0.497   0.503   0.491   0.506   0.503   0.512   0.513   0.503   0.487   0.519   0.512   0.511   0.526   0.539   0.517   0.521   0.544
    24.25    0.506   0.498   0.499   0.491   0.514   0.534   0.538   0.514   0.495   0.506   0.513   0.494   0.500   0.511   0.484   0.503   0.503   0.463   0.476   0.488   0.499   0.494   0.503   0.521   0.513   0.522   0.518   0.537   0.514   0.531   0.512   0.526   0.509   0.512   0.539
    19.60    0.518   0.509   0.493   0.495   0.524   0.515   0.496   0.504   0.498   0.478   0.485   0.488   0.504   0.504   0.494   0.488   0.481   0.477   0.510   0.510   0.491   0.495   0.502   0.523   0.514   0.518   0.511   0.511   0.516   0.516   0.511   0.494   0.514   0.524   0.510
    14.95    0.491   0.503   0.512   0.521   0.508   0.502   0.492   0.494   0.508   0.476   0.467   0.470   0.477   0.487   0.505   0.506   0.474   0.479   0.515   0.493   0.489   0.498   0.505   0.517   0.512   0.526   0.531   0.489   0.511   0.533   0.496   0.492   0.526   0.530   0.535
    10.30    0.513   0.530   0.526   0.520   0.536   0.517   0.525   0.503   0.480   0.483   0.450   0.459   0.466   0.451   0.492   0.498   0.509   0.482   0.519   0.503   0.502   0.504   0.528   0.521   0.521   0.516   0.521   0.512   0.526   0.529   0.522   0.519   0.521   0.533   0.528
     5.65    0.518   0.533   0.549   0.527   0.522   0.500   0.505   0.473   0.472   0.455   0.446   0.440   0.461   0.494   0.497   0.513   0.508   0.491   0.524   0.522   0.535   0.522   0.537   0.529   0.547   0.519   0.534   0.548   0.553   0.548   0.527   0.536   0.539   0.542   0.533
     1.00    0.503   0.524   0.526   0.496   0.476   0.504   0.485   0.473   0.471   0.476   0.460   0.450   0.457   0.475   0.496   0.519   0.520   0.516   0.521   0.525   0.536   0.530   0.534   0.541   0.558   0.547   0.552   0.549   0.566   0.541   0.538   0.556   0.553   0.568   0.554

   Height   Standard deviation at grid points for the w component:
   168.40    0.361   0.357   0.347   0.353   0.359   0.354   0.357   0.342   0.361   0.356   0.347   0.347   0.361   0.356   0.363   0.372   0.391   0.372   0.373   0.362   0.377   0.371   0.364   0.355   0.353   0.349   0.335   0.338   0.339   0.344   0.341   0.337   0.341   0.352   0.345
   163.75    0.351   0.343   0.348   0.340   0.338   0.344   0.345   0.348   0.353   0.356   0.358   0.345   0.370   0.374   0.379   0.376   0.389   0.400   0.393   0.379   0.374   0.361   0.366   0.357   0.356   0.345   0.360   0.346   0.341   0.343   0.336   0.339   0.350   0.353   0.333
   159.10    0.358   0.357   0.346   0.334   0.324   0.332   0.338   0.345   0.361   0.367   0.353   0.348   0.371   0.386   0.382   0.383   0.393   0.385   0.397   0.387   0.367   0.376   0.365   0.369   0.368   0.351   0.353   0.342   0.337   0.348   0.353   0.336   0.348   0.343   0.338
   154.45    0.355   0.353   0.337   0.327   0.340   0.325   0.336   0.358   0.371   0.358   0.353   0.354   0.364   0.369   0.382   0.362   0.373   0.374   0.394   0.370   0.375   0.367   0.378   0.381   0.351   0.357   0.354   0.347   0.341   0.350   0.334   0.344   0.337   0.347   0.347
   149.80    0.346   0.340   0.332   0.342   0.336   0.331   0.331   0.348   0.368   0.374   0.355   0.359   0.346   0.362   0.377   0.386   0.375   0.378   0.377   0.353   0.371   0.356   0.377   0.374   0.372   0.343   0.347   0.349   0.353   0.354   0.347   0.342   0.348   0.337   0.326
   145.15    0.352   0.354   0.344   0.352   0.342   0.338   0.335   0.348   0.355   0.363   0.358   0.349   0.354   0.358   0.363   0.373   0.390   0.370   0.361   0.352   0.355   0.370   0.377   0.367   0.351   0.358   0.334   0.337   0.347   0.336   0.350   0.350   0.348   0.344   0.339
   140.50    0.345   0.366   0.355   0.357   0.352   0.352   0.341   0.344   0.362   0.352   0.352   0.358   0.353   0.349   0.349   0.371   0.383   0.369   0.359   0.380   0.361   0.368   0.364   0.365   0.360   0.362   0.342   0.339   0.343   0.342   0.346   0.354   0.350   0.359   0.349
   135.85    0.347   0.362   0.364   0.352   0.358   0.348   0.349   0.344   0.351   0.344   0.356   0.375   0.364   0.354   0.362   0.382   0.380   0.370   0.373   0.377   0.375   0.362   0.373   0.362   0.356   0.355   0.343   0.355   0.336   0.341   0.355   0.355   0.345   0.345   0.346
   131.20    0.346   0.366   0.355   0.350   0.353   0.349   0.354   0.351   0.341   0.352   0.351   0.369   0.362   0.340   0.359   0.375   0.377   0.378   0.370   0.375   0.362   0.370   0.376   0.359   0.354   0.346   0.350   0.343   0.346   0.347   0.358   0.356   0.361   0.351   0.357
   126.55    0.357   0.347   0.351   0.357   0.365   0.346   0.358   0.340   0.353   0.356   0.358   0.371   0.351   0.353   0.376   0.361   0.367   0.371   0.366   0.349   0.371   0.373   0.366   0.366   0.359   0.348   0.337   0.351   0.350   0.349   0.352   0.346   0.352   0.350   0.345
   121.90    0.345   0.347   0.341   0.341   0.361   0.358   0.356   0.335   0.350   0.364   0.357   0.344   0.352   0.358   0.363   0.353   0.347   0.354   0.355   0.350   0.357   0.366   0.368   0.361   0.359   0.347   0.350   0.364   0.365   0.367   0.373   0.350   0.342   0.344   0.346
   117.25    0.337   0.345   0.347   0.346   0.362   0.356   0.357   0.356   0.347   0.365   0.359   0.345   0.346   0.339   0.366   0.368   0.358   0.344   0.347   0.347   0.360   0.370   0.370   0.371   0.362   0.364   0.353   0.352   0.359   0.350   0.353   0.367   0.374   0.361   0.337
   112.60    0.347   0.347   0.340   0.342   0.352   0.357   0.348   0.363   0.366   0.370   0.349   0.348   0.352   0.349   0.350   0.360   0.368   0.344   0.358   0.354   0.352   0.370   0.367   0.368   0.371   0.351   0.350   0.353   0.366   0.363   0.365   0.365   0.368   0.382   0.355
   107.95    0.344   0.335   0.343   0.346   0.356   0.359   0.364   0.356   0.355   0.362   0.358   0.362   0.336   0.336   0.349   0.362   0.357   0.357   0.352   0.360   0.371   0.377   0.390   0.376   0.366   0.362   0.368   0.367   0.388   0.368   0.354   0.373   0.370   0.375   0.381
   103.30    0.354   0.360   0.354   0.363   0.374   0.370   0.367   0.363   0.361   0.364   0.371   0.371   0.366   0.341   0.348   0.350   0.356   0.354   0.351   0.357   0.364   0.365   0.377   0.385   0.370   0.364   0.367   0.362   0.360   0.364   0.359   0.369   0.367   0.391   0.399
    98.65    0.352   0.346   0.347   0.359   0.373   0.357   0.378   0.375   0.367   0.353   0.354   0.371   0.367   0.352   0.346   0.356   0.351   0.363   0.371   0.354   0.362   0.362   0.361   0.368   0.367   0.365   0.375   0.368   0.375   0.368   0.365   0.359   0.384   0.387   0.399
    94.00    0.358   0.355   0.343   0.358   0.362   0.372   0.374   0.363   0.353   0.353   0.360   0.360   0.369   0.364   0.359   0.365   0.362   0.370   0.364   0.367   0.356   0.366   0.356   0.360   0.358   0.355   0.370   0.377   0.385   0.379   0.374   0.381   0.384   0.374   0.395
    89.35    0.351   0.345   0.356   0.374   0.366   0.371   0.378   0.363   0.354   0.369   0.372   0.382   0.374   0.381   0.377   0.373   0.366   0.365   0.361   0.371   0.383   0.360   0.358   0.361   0.365   0.369   0.354   0.362   0.379   0.385   0.376   0.391   0.395   0.395   0.393
    84.70    0.331   0.338   0.357   0.378   0.372   0.371   0.380   0.359   0.339   0.364   0.366   0.376   0.371   0.371   0.382   0.376   0.385   0.368   0.358   0.362   0.358   0.359   0.350   0.359   0.371   0.376   0.368   0.364   0.376   0.374   0.373   0.376   0.388   0.387   0.386
    80.05    0.330   0.342   0.356   0.382   0.367   0.349   0.365   0.363   0.348   0.371   0.380   0.374   0.349   0.362   0.366   0.353   0.352   0.352   0.368   0.363   0.367   0.356   0.344   0.339   0.364   0.382   0.366   0.365   0.372   0.378   0.379   0.377   0.383   0.384   0.380
    75.40    0.350   0.361   0.369   0.380   0.367   0.364   0.348   0.349   0.360   0.367   0.375   0.373   0.363   0.360   0.358   0.359   0.353   0.353   0.368   0.363   0.339   0.350   0.353   0.353   0.362   0.367   0.350   0.372   0.374   0.372   0.376   0.381   0.389   0.395   0.388
    70.75    0.358   0.364   0.380   0.377   0.379   0.365   0.380   0.358   0.367   0.368   0.388   0.394   0.368   0.373   0.354   0.358   0.345   0.354   0.354   0.348   0.338   0.357   0.368   0.366   0.364   0.356   0.363   0.377   0.381   0.392   0.376   0.374   0.381   0.385   0.391
    66.10    0.376   0.374   0.388   0.385   0.347   0.356   0.347   0.358   0.364   0.360   0.374   0.381   0.378   0.376   0.361   0.345   0.347   0.356   0.336   0.342   0.335   0.347   0.356   0.369   0.357   0.358   0.362   0.367   0.373   0.376   0.371   0.370   0.377   0.386   0.389
    61.45    0.383   0.365   0.368   0.349   0.336   0.355   0.358   0.347   0.354   0.361   0.359   0.379   0.379   0.389   0.363   0.349   0.367   0.376   0.366   0.351   0.338   0.359   0.358   0.365   0.375   0.363   0.361   0.364   0.382   0.365   0.376   0.366   0.361   0.362   0.361
    56.80    0.363   0.359   0.349   0.348   0.343   0.353   0.359   0.368   0.351   0.343   0.373   0.368   0.370   0.386   0.371   0.359   0.366   0.372   0.356   0.350   0.364   0.360   0.365   0.366   0.373   0.351   0.357   0.359   0.377   0.386   0.390   0.370   0.361   0.354   0.359
    52.15    0.352   0.372   0.364   0.341   0.340   0.350   0.340   0.357   0.373   0.360   0.357   0.366   0.371   0.375   0.370   0.371   0.369   0.375   0.379   0.373   0.369   0.371   0.364   0.373   0.370   0.356   0.357   0.359   0.370   0.375   0.385   0.365   0.360   0.353   0.351
    47.50    0.363   0.360   0.354   0.346   0.350   0.350   0.342   0.363   0.360   0.362   0.346   0.360   0.361   0.364   0.378   0.390   0.376   0.378   0.383   0.382   0.385   0.378   0.364   0.377   0.364   0.363   0.357   0.352   0.363   0.376   0.379   0.359   0.361   0.360   0.350
    42.85    0.359   0.349   0.349   0.350   0.344   0.345   0.358   0.350   0.351   0.347   0.335   0.350   0.360   0.364   0.368   0.369   0.395   0.392   0.373   0.370   0.375   0.368   0.357   0.361   0.370   0.359   0.374   0.368   0.371   0.374   0.371   0.359   0.360   0.353   0.357
    38.20    0.350   0.358   0.357   0.370   0.359   0.360   0.357   0.337   0.341   0.331   0.337   0.347   0.348   0.355   0.355   0.367   0.373   0.386   0.356   0.361   0.361   0.366   0.367   0.373   0.378   0.388   0.375   0.381   0.373   0.369   0.383   0.360   0.345   0.343   0.352
    33.55    0.350   0.357   0.361   0.367   0.374   0.366   0.352   0.339   0.324   0.316   0.333   0.340   0.359   0.352   0.354   0.370   0.396   0.371   0.365   0.352   0.354   0.366   0.362   0.364   0.369   0.378   0.374   0.371   0.363   0.369   0.374   0.357   0.349   0.342   0.345
    28.90    0.340   0.355   0.352   0.360   0.351   0.368   0.347   0.333   0.338   0.334   0.349   0.350   0.351   0.362   0.358   0.373   0.366   0.371   0.369   0.369   0.352   0.363   0.357   0.374   0.382   0.384   0.370   0.382   0.363   0.372   0.376   0.352   0.348   0.349   0.335
    24.25    0.352   0.336   0.350   0.357   0.355   0.362   0.347   0.338   0.337   0.335   0.343   0.346   0.376   0.366   0.371   0.372   0.372   0.364   0.376   0.360   0.363   0.366   0.373   0.371   0.362   0.370   0.370   0.363   0.361   0.368   0.360   0.353   0.349   0.353   0.344
    19.60    0.352   0.353   0.349   0.353   0.355   0.346   0.344   0.331   0.335   0.353   0.358   0.362   0.362   0.378   0.352   0.375   0.373   0.366   0.368   0.377   0.352   0.351   0.360   0.375   0.358   0.367   0.360   0.351   0.360   0.359   0.366   0.359   0.351   0.352   0.336
    14.95    0.358   0.346   0.350   0.354   0.362   0.359   0.357   0.341   0.343   0.356   0.360   0.357   0.363   0.368   0.375   0.385   0.379   0.360   0.355   0.365   0.367   0.349   0.358   0.378   0.371   0.365   0.366   0.357   0.369   0.363   0.366   0.354   0.357   0.339   0.335
    10.30    0.354   0.362   0.353   0.373   0.355   0.370   0.360   0.349   0.340   0.340   0.355   0.351   0.365   0.359   0.363   0.373   0.368   0.365   0.366   0.360   0.358   0.342   0.345   0.364   0.374   0.362   0.362   0.372   0.373   0.370   0.355   0.352   0.350   0.347   0.338
     5.65    0.335   0.366   0.367   0.357   0.363   0.356   0.367   0.359   0.349   0.345   0.353   0.366   0.360   0.358   0.347   0.361   0.364   0.369   0.362   0.347   0.347   0.346   0.368   0.382   0.388   0.369   0.357   0.374   0.358   0.370   0.364   0.365   0.355   0.357   0.347
     1.00    0.364   0.361   0.364   0.351   0.356   0.352   0.362   0.354   0.358   0.355   0.352   0.359   0.368   0.346   0.349   0.362   0.360   0.360   0.369   0.354   0.372   0.381   0.378   0.380   0.379   0.362   0.364   0.373   0.356   0.361   0.359   0.350   0.346   0.350   0.341

   Mean standard deviation across all grid points:
      u component:    0.672 m/s
      v component:    0.545 m/s
      w component:    0.360 m/s


U-component (X) statistics from the interpolated hub point:

   Mean =   9.9913 m/s
   TI   =   6.3084 %


Processing complete.  5821.2 CPU seconds used.
