
This summary file was generated by TurbSim (from OpenFAST-v3.5.3) on 19-Apr-2025 at 21:26:02.


Runtime Options:

**********  Random seed #1
    RANLUX  Type of random number generator
         F  Output binary HH turbulence parameters?
         F  Output formatted turbulence parameters?
         F  Output AeroDyn HH files?
         T  Output AeroDyn FF files?
         F  Output BLADED FF files?
         F  Output tower data?
         F  Output HAWC FF files?
         F  Output formatted FF files?
         T  Output coherent turbulence time step file?
 0 -  NONE  IEC turbulence models scaled to exact specified standard deviation


Turbine/Model Specifications:

        39  Vertical grid-point matrix dimension
       193  Horizontal grid-point matrix dimension
     0.250  Time step [seconds]
   900.000  Analysis time [seconds]
   900.000  Usable output time [seconds]
   177.700  Hub height [m]
   353.400  Grid height [m]
  1785.600  Grid width [m]
     0.000  Vertical flow angle [degrees]
     0.000  Horizontal flow angle [degrees]


Meteorological Boundary Conditions:

    IECKAI  IEC Kaimal spectral model
         1  IEC standard: IEC 61400-1 Ed. 3: 2005
     7.500  Percent turbulence intensity, IEC 61400-1 Ed. 3: 2005
       NTM  IEC Normal Turbulence Model
       N/A  IEC Extreme Turbulence Model (ETM) "c" parameter [m/s]
       USR  Wind profile type
    90.000  Reference height [m]
       N/A  Reference wind speed [m/s]
       N/A  Jet height [m]
       N/A  Power law exponent
     0.030  Surface roughness length [m]


Non-IEC Meteorological Boundary Conditions:

       N/A  Site latitude [degrees]
       N/A  Gradient Richardson number
       N/A  Friction or shear velocity [m/s]
       N/A  Mixing layer depth [m]
       N/A  Mean hub u'w' Reynolds stress
       N/A  Mean hub u'v' Reynolds stress
       N/A  Mean hub v'w' Reynolds stress


Spatial Coherence Models:

       IEC  u-component coherence model
       IEC  v-component coherence model
       IEC  w-component coherence model
(   12.000, 0.353E-03)  u-component coherence parameters
(   12.000, 0.353E-03)  v-component coherence parameters
(   12.000, 0.353E-03)  w-component coherence parameters
       N/A  Coherence exponent


User-Defined Profiles:

  Height   Wind Speed   Horizontal Angle
   (m)        (m/s)          (deg)      
  ------   ----------   ----------------
  353.40      10.00         318.19
  334.80      10.00         321.14
  316.20      10.00         324.10
  297.60      10.00         327.05
  279.00      10.00         330.00
  260.40      10.00         332.95
  241.80      10.00         335.90
  223.20      10.00         338.86
  204.60      10.00         341.81
  186.00      10.00         344.76
  167.40      10.00         347.71
  148.80      10.00         350.67
  130.20      10.00         353.62
  111.60      10.00         356.57
   93.00      10.00         359.52
   74.40      10.00           2.48
   55.80      10.00           5.43
   37.20      10.00           8.38
   18.60      10.00          11.33
    0.00      10.00          14.29


You have requested that the following file(s) be generated:

   /kfs3/scratch/agupta/Projects/RL_Incubator/FinalRuns_Veer/Seed4/./FFSim_Seed4/Cond00_v10.0_PL0.12_TI7.5/Seed_3/Low.bts (AeroDyn/TurbSim full-field wind file)


Turbulence Simulation Scaling Parameter Summary:

   Turbulence model used                            =  IEC Kaimal
   Turbulence characteristic                        =  User-specified
   IEC standard                                     =  IEC 61400-1 Ed. 3: 2005
   Mean wind speed at hub height                    =   10.000 m/s
   Characteristic value of standard deviation       =    0.750 m/s
   Turbulence scale                                 =   42.000 m
   u-component integral scale                       =  340.200 m
   Coherency scale                                  =  340.200 m
   Characteristic value of hub turbulence intensity =    7.500%
   Gradient Richardson number                       =    0.000

   Wind profile type                                =  Linear interpolation of user-defined profile
   Equivalent power law exponent (upper rotor disk) =    0.000
   Mean shear across rotor disk                     =    0.000 (m/s)/m
   Assumed rotor diameter                           =  353.400 m
   Surface roughness length                         =    0.030 m

   Nyquist frequency of turbulent wind field        =    2.000 Hz

   Number of time steps in the FFT                  =     3600
   Number of time steps output                      =     3600
   Number of points simulated                       =     7527


Mean Flow Angles:

   Vertical   =   0.0 degrees
   Horizontal =   0.0 degrees

Mean Wind Speed Profile:

   Height    Wind Speed   Horizontal Angle  Vertical Angle  U-comp (X)   V-comp (Y)   W-comp (Z)
     (m)        (m/s)         (degrees)       (degrees)       (m/s)        (m/s)        (m/s)   
   ------    ----------   ----------------  --------------  ----------   ----------   ----------
    354.4       10.00          318.19            0.00          7.45        -6.67         0.00
    345.1       10.00          319.51            0.00          7.60        -6.49         0.00
    335.8       10.00          320.98            0.00          7.77        -6.30         0.00
    326.5       10.00          322.46            0.00          7.93        -6.09         0.00
    317.2       10.00          323.94            0.00          8.08        -5.89         0.00
    307.9       10.00          325.41            0.00          8.23        -5.68         0.00
    298.6       10.00          326.89            0.00          8.38        -5.46         0.00
    289.3       10.00          328.37            0.00          8.51        -5.25         0.00
    280.0       10.00          329.84            0.00          8.65        -5.02         0.00
    270.7       10.00          331.32            0.00          8.77        -4.80         0.00
    261.4       10.00          332.79            0.00          8.89        -4.57         0.00
    252.1       10.00          334.27            0.00          9.01        -4.34         0.00
    242.8       10.00          335.75            0.00          9.12        -4.11         0.00
    233.5       10.00          337.22            0.00          9.22        -3.87         0.00
    224.2       10.00          338.70            0.00          9.32        -3.63         0.00
    214.9       10.00          340.17            0.00          9.41        -3.39         0.00
    205.6       10.00          341.65            0.00          9.49        -3.15         0.00
    196.3       10.00          343.13            0.00          9.57        -2.90         0.00
    187.0       10.00          344.60            0.00          9.64        -2.66         0.00
    177.7       10.00          346.08            0.00          9.71        -2.41         0.00
    168.4       10.00          347.56            0.00          9.77        -2.15         0.00
    159.1       10.00          349.03            0.00          9.82        -1.90         0.00
    149.8       10.00          350.51            0.00          9.86        -1.65         0.00
    140.5       10.00          351.98            0.00          9.90        -1.39         0.00
    131.2       10.00          353.46            0.00          9.93        -1.14         0.00
    121.9       10.00          354.94            0.00          9.96        -0.88         0.00
    112.6       10.00          356.41            0.00          9.98        -0.63         0.00
    103.3       10.00          357.89            0.00          9.99        -0.37         0.00
     94.0       10.00          359.37            0.00         10.00        -0.11         0.00
     84.7       10.00          360.84            0.00         10.00         0.15         0.00
     75.4       10.00          362.32            0.00          9.99         0.40         0.00
     66.1       10.00            3.79            0.00          9.98         0.66         0.00
     56.8       10.00            5.27            0.00          9.96         0.92         0.00
     47.5       10.00            6.75            0.00          9.93         1.17         0.00
     38.2       10.00            8.22            0.00          9.90         1.43         0.00
     28.9       10.00            9.70            0.00          9.86         1.68         0.00
     19.6       10.00           11.17            0.00          9.81         1.94         0.00
     10.3       10.00           12.65            0.00          9.76         2.19         0.00
      1.0       10.00           14.13            0.00          9.70         2.44         0.00


Harvested Random Seeds after Generation of the Random Numbers:

    377667225 K 1
            0 K 2


Hub-Height Simulated Turbulence Statistical Summary:

   Type of Wind        Min (m/s)   Mean (m/s)    Max (m/s)  Sigma (m/s)       TI (%)
   ----------------    ---------   ----------    ---------  -----------       ------
   Longitudinal (u)         7.91        10.00        12.04        0.696        6.965
   Lateral (v)             -1.87        -0.00         2.28        0.570        5.697
   Vertical (w)            -1.39        -0.00         1.28        0.363        3.627
   U component              7.74         9.71        11.81        0.699        7.202
   V component             -4.42        -2.41        -0.19        0.567        5.838
   W component             -1.39        -0.00         1.28        0.363        3.737
   Horizontal (U&V)         7.92        10.02        12.05        0.695        6.942
   Total                    7.93        10.02        12.06        0.695        6.938

                       Min Reynolds     Mean Reynolds    Max Reynolds    Correlation
   Product             Stress (m/s)^2   Stress (m/s)^2   Stress (m/s)^2  Coefficient
   ----------------    --------------   --------------   --------------  -----------
   u'w'                     -1.483             0.009             1.268         0.035
   u'v'                     -2.405             0.027             1.909         0.069
   v'w'                     -1.307             0.014             1.473         0.070


   Friction Velocity (Ustar)  =      0.093 m/s
   Maximum Instantaneous TKE  =      2.708 (m/s)^2
   Maximum Instantaneous CTKE =      1.202 (m/s)^2


Grid Point Variance Summary:

   Y-coord -892.80 -883.50 -874.20 -864.90 -855.60 -846.30 -837.00 -827.70 -818.40 -809.10 -799.80 -790.50 -781.20 -771.90 -762.60 -753.30 -744.00 -734.70 -725.40 -716.10 -706.80 -697.50 -688.20 -678.90 -669.60 -660.30 -651.00 -641.70 -632.40 -623.10 -613.80 -604.50 -595.20 -585.90 -576.60 -567.30 -558.00 -548.70 -539.40 -530.10 -520.80 -511.50 -502.20 -492.90 -483.60 -474.30 -465.00 -455.70 -446.40 -437.10 -427.80 -418.50 -409.20 -399.90 -390.60 -381.30 -372.00 -362.70 -353.40 -344.10 -334.80 -325.50 -316.20 -306.90 -297.60 -288.30 -279.00 -269.70 -260.40 -251.10 -241.80 -232.50 -223.20 -213.90 -204.60 -195.30 -186.00 -176.70 -167.40 -158.10 -148.80 -139.50 -130.20 -120.90 -111.60 -102.30  -93.00  -83.70  -74.40  -65.10  -55.80  -46.50  -37.20  -27.90  -18.60   -9.30    0.00    9.30   18.60   27.90   37.20   46.50   55.80   65.10   74.40   83.70   93.00  102.30  111.60  120.90  130.20  139.50  148.80  158.10  167.40  176.70  186.00  195.30  204.60  213.90  223.20  232.50  241.80  251.10  260.40  269.70  279.00  288.30  297.60  306.90  316.20  325.50  334.80  344.10  353.40  362.70  372.00  381.30  390.60  399.90  409.20  418.50  427.80  437.10  446.40  455.70  465.00  474.30  483.60  492.90  502.20  511.50  520.80  530.10  539.40  548.70  558.00  567.30  576.60  585.90  595.20  604.50  613.80  623.10  632.40  641.70  651.00  660.30  669.60  678.90  688.20  697.50  706.80  716.10  725.40  734.70  744.00  753.30  762.60  771.90  781.20  790.50  799.80  809.10  818.40  827.70  837.00  846.30  855.60  864.90  874.20  883.50  892.80

   Height   Standard deviation at grid points for the u component:
   354.40    0.752   0.799   0.780   0.806   0.809   0.825   0.836   0.786   0.742   0.698   0.763   0.787   0.812   0.791   0.700   0.754   0.770   0.712   0.659   0.667   0.671   0.678   0.671   0.665   0.691   0.721   0.721   0.692   0.714   0.654   0.691   0.702   0.697   0.695   0.678   0.636   0.709   0.709   0.704   0.772   0.783   0.720   0.744   0.746   0.734   0.733   0.703   0.698   0.712   0.731   0.715   0.712   0.727   0.772   0.810   0.822   0.807   0.756   0.761   0.755   0.711   0.704   0.711   0.708   0.702   0.731   0.757   0.775   0.726   0.783   0.758   0.808   0.781   0.767   0.773   0.768   0.803   0.814   0.796   0.765   0.788   0.791   0.724   0.740   0.706   0.705   0.652   0.631   0.598   0.591   0.622   0.637   0.630   0.635   0.635   0.620   0.673   0.659   0.686   0.758   0.729   0.732   0.743   0.723   0.641   0.640   0.692   0.670   0.660   0.702   0.719   0.735   0.710   0.716   0.719   0.757   0.796   0.766   0.792   0.765   0.776   0.833   0.805   0.749   0.798   0.790   0.720   0.735   0.741   0.703   0.773   0.807   0.784   0.771   0.765   0.738   0.767   0.735   0.777   0.800   0.787   0.832   0.832   0.812   0.786   0.801   0.826   0.801   0.801   0.813   0.791   0.780   0.794   0.771   0.818   0.785   0.777   0.762   0.782   0.862   0.923   0.999   1.066   1.039   0.975   0.988   0.889   0.915   0.955   0.912   0.917   0.958   0.931   0.947   0.889   0.835   0.839   0.856   0.857   0.818   0.833   0.829   0.833   0.801   0.773   0.822   0.845   0.814   0.773   0.723   0.733   0.782   0.765
   345.10    0.712   0.736   0.806   0.809   0.794   0.828   0.788   0.752   0.711   0.673   0.712   0.769   0.788   0.791   0.733   0.714   0.785   0.767   0.716   0.695   0.692   0.689   0.692   0.671   0.684   0.694   0.704   0.721   0.699   0.666   0.743   0.717   0.761   0.720   0.693   0.656   0.705   0.705   0.739   0.765   0.780   0.740   0.727   0.755   0.744   0.746   0.720   0.735   0.766   0.731   0.725   0.738   0.811   0.789   0.822   0.851   0.808   0.734   0.746   0.753   0.735   0.719   0.691   0.690   0.711   0.715   0.757   0.768   0.778   0.786   0.804   0.808   0.794   0.746   0.748   0.749   0.764   0.805   0.790   0.757   0.764   0.782   0.763   0.762   0.735   0.696   0.690   0.651   0.628   0.654   0.648   0.642   0.654   0.623   0.641   0.640   0.659   0.652   0.674   0.735   0.723   0.753   0.743   0.674   0.643   0.633   0.656   0.717   0.677   0.686   0.664   0.685   0.642   0.692   0.763   0.779   0.776   0.798   0.786   0.747   0.766   0.764   0.725   0.765   0.814   0.761   0.733   0.735   0.704   0.725   0.749   0.782   0.765   0.775   0.814   0.798   0.804   0.802   0.836   0.826   0.800   0.842   0.787   0.795   0.741   0.792   0.831   0.841   0.851   0.806   0.817   0.791   0.818   0.796   0.846   0.848   0.793   0.775   0.846   0.896   0.949   1.024   1.051   1.014   0.996   0.961   0.894   0.919   0.902   0.892   0.945   0.979   0.948   0.987   0.946   0.853   0.799   0.826   0.899   0.840   0.836   0.858   0.785   0.785   0.824   0.781   0.781   0.755   0.737   0.704   0.736   0.732   0.782
   335.80    0.735   0.728   0.778   0.829   0.778   0.778   0.763   0.786   0.729   0.716   0.758   0.777   0.812   0.785   0.736   0.758   0.756   0.741   0.711   0.718   0.726   0.686   0.675   0.690   0.659   0.632   0.684   0.685   0.701   0.719   0.745   0.738   0.723   0.695   0.651   0.647   0.675   0.681   0.717   0.723   0.712   0.703   0.711   0.754   0.736   0.740   0.786   0.810   0.759   0.763   0.751   0.732   0.777   0.828   0.842   0.848   0.803   0.789   0.751   0.790   0.776   0.740   0.692   0.668   0.694   0.698   0.692   0.798   0.737   0.818   0.774   0.777   0.801   0.757   0.759   0.694   0.741   0.769   0.744   0.746   0.794   0.780   0.766   0.746   0.715   0.703   0.662   0.677   0.654   0.671   0.714   0.648   0.652   0.603   0.625   0.633   0.616   0.669   0.671   0.661   0.725   0.715   0.726   0.703   0.627   0.599   0.636   0.655   0.657   0.652   0.699   0.688   0.703   0.732   0.767   0.752   0.784   0.821   0.780   0.752   0.726   0.752   0.720   0.767   0.741   0.733   0.744   0.708   0.702   0.704   0.738   0.753   0.740   0.763   0.741   0.789   0.782   0.848   0.855   0.801   0.847   0.789   0.749   0.794   0.750   0.778   0.815   0.879   0.845   0.862   0.827   0.799   0.789   0.787   0.767   0.792   0.732   0.795   0.827   0.829   0.928   0.966   0.964   0.995   0.981   0.972   0.947   0.913   0.911   0.893   0.962   0.975   0.936   0.996   0.977   0.937   0.845   0.880   0.872   0.886   0.838   0.857   0.803   0.814   0.860   0.816   0.803   0.734   0.704   0.636   0.686   0.711   0.794
   326.50    0.722   0.741   0.769   0.759   0.762   0.745   0.771   0.765   0.777   0.758   0.787   0.762   0.736   0.793   0.786   0.816   0.809   0.813   0.736   0.748   0.734   0.698   0.662   0.655   0.618   0.604   0.631   0.675   0.672   0.722   0.730   0.744   0.717   0.681   0.666   0.626   0.666   0.667   0.684   0.665   0.698   0.686   0.702   0.733   0.752   0.717   0.752   0.812   0.823   0.768   0.723   0.758   0.726   0.749   0.758   0.833   0.812   0.785   0.757   0.755   0.782   0.763   0.682   0.663   0.715   0.790   0.751   0.786   0.784   0.799   0.787   0.741   0.812   0.813   0.753   0.730   0.764   0.762   0.720   0.724   0.735   0.754   0.730   0.723   0.712   0.663   0.647   0.652   0.671   0.624   0.629   0.636   0.648   0.614   0.617   0.615   0.593   0.644   0.636   0.683   0.722   0.705   0.686   0.673   0.627   0.552   0.647   0.634   0.667   0.703   0.688   0.681   0.737   0.726   0.735   0.739   0.790   0.772   0.748   0.776   0.704   0.741   0.717   0.704   0.746   0.745   0.730   0.717   0.744   0.758   0.713   0.754   0.700   0.742   0.682   0.791   0.785   0.777   0.772   0.794   0.860   0.835   0.821   0.776   0.760   0.784   0.765   0.815   0.895   0.811   0.822   0.807   0.809   0.775   0.832   0.884   0.821   0.800   0.791   0.815   0.836   0.923   0.915   0.917   0.984   0.968   0.951   0.942   0.924   0.942   0.970   1.001   0.983   0.955   0.960   0.919   0.841   0.863   0.831   0.834   0.800   0.777   0.794   0.756   0.784   0.788   0.732   0.683   0.667   0.659   0.666   0.749   0.758
   317.20    0.730   0.779   0.787   0.724   0.712   0.732   0.681   0.688   0.732   0.692   0.724   0.788   0.801   0.813   0.781   0.742   0.785   0.799   0.768   0.739   0.770   0.746   0.721   0.667   0.619   0.647   0.605   0.623   0.659   0.683   0.734   0.674   0.665   0.619   0.610   0.629   0.588   0.635   0.652   0.673   0.649   0.703   0.722   0.775   0.785   0.759   0.744   0.790   0.839   0.784   0.757   0.755   0.722   0.768   0.754   0.792   0.794   0.807   0.721   0.736   0.709   0.698   0.719   0.687   0.722   0.749   0.742   0.785   0.739   0.774   0.762   0.795   0.767   0.817   0.764   0.766   0.755   0.721   0.703   0.706   0.708   0.738   0.718   0.684   0.713   0.655   0.673   0.678   0.654   0.657   0.642   0.605   0.638   0.618   0.633   0.617   0.624   0.673   0.678   0.683   0.728   0.756   0.756   0.690   0.641   0.615   0.672   0.653   0.648   0.672   0.705   0.714   0.722   0.736   0.738   0.689   0.719   0.763   0.757   0.732   0.702   0.705   0.675   0.683   0.728   0.728   0.706   0.727   0.742   0.700   0.704   0.678   0.648   0.672   0.698   0.743   0.712   0.712   0.728   0.737   0.760   0.823   0.855   0.790   0.730   0.759   0.761   0.821   0.871   0.862   0.870   0.846   0.829   0.801   0.757   0.789   0.788   0.793   0.836   0.825   0.866   0.848   0.936   0.967   0.967   0.950   1.002   0.944   0.935   0.906   0.923   0.991   0.929   0.977   0.966   0.908   0.880   0.845   0.800   0.802   0.773   0.783   0.811   0.775   0.754   0.694   0.716   0.644   0.631   0.685   0.673   0.703   0.794
   307.90    0.738   0.747   0.798   0.767   0.772   0.746   0.684   0.719   0.698   0.717   0.760   0.781   0.800   0.789   0.746   0.738   0.769   0.791   0.794   0.746   0.735   0.711   0.719   0.662   0.656   0.618   0.582   0.617   0.637   0.670   0.713   0.716   0.650   0.640   0.606   0.612   0.612   0.629   0.698   0.721   0.720   0.754   0.721   0.758   0.720   0.705   0.751   0.823   0.831   0.819   0.733   0.719   0.717   0.746   0.743   0.782   0.775   0.761   0.729   0.715   0.681   0.700   0.718   0.729   0.675   0.744   0.796   0.791   0.793   0.749   0.749   0.780   0.772   0.744   0.784   0.716   0.727   0.669   0.672   0.710   0.696   0.670   0.673   0.683   0.687   0.687   0.616   0.657   0.647   0.629   0.604   0.631   0.633   0.604   0.648   0.664   0.665   0.680   0.698   0.730   0.705   0.705   0.729   0.700   0.675   0.610   0.652   0.679   0.665   0.710   0.678   0.705   0.654   0.692   0.702   0.703   0.690   0.683   0.747   0.691   0.708   0.696   0.724   0.737   0.709   0.772   0.723   0.675   0.689   0.661   0.691   0.674   0.577   0.633   0.671   0.717   0.675   0.722   0.723   0.739   0.791   0.806   0.800   0.751   0.713   0.740   0.827   0.840   0.865   0.858   0.860   0.854   0.846   0.834   0.751   0.744   0.755   0.812   0.812   0.826   0.808   0.854   0.917   0.886   0.917   0.908   0.982   0.985   0.983   0.929   0.901   0.935   0.974   0.957   0.953   0.897   0.856   0.819   0.798   0.757   0.786   0.774   0.761   0.711   0.711   0.694   0.660   0.688   0.673   0.686   0.673   0.667   0.718
   298.60    0.738   0.726   0.744   0.777   0.782   0.739   0.671   0.675   0.663   0.705   0.732   0.771   0.754   0.750   0.735   0.733   0.772   0.780   0.773   0.792   0.770   0.709   0.660   0.700   0.643   0.662   0.597   0.660   0.644   0.671   0.661   0.694   0.635   0.615   0.585   0.611   0.655   0.685   0.719   0.740   0.762   0.737   0.758   0.733   0.667   0.636   0.696   0.728   0.786   0.791   0.750   0.721   0.681   0.721   0.735   0.709   0.714   0.750   0.738   0.721   0.676   0.692   0.740   0.684   0.747   0.732   0.744   0.765   0.742   0.765   0.783   0.746   0.754   0.718   0.690   0.739   0.671   0.674   0.682   0.665   0.644   0.623   0.625   0.661   0.658   0.653   0.662   0.668   0.650   0.583   0.595   0.628   0.618   0.673   0.674   0.656   0.668   0.673   0.681   0.693   0.686   0.720   0.753   0.775   0.707   0.703   0.709   0.703   0.661   0.684   0.680   0.676   0.658   0.685   0.679   0.706   0.688   0.658   0.700   0.670   0.684   0.713   0.704   0.717   0.719   0.714   0.693   0.667   0.669   0.663   0.673   0.613   0.571   0.640   0.690   0.785   0.669   0.711   0.742   0.712   0.769   0.800   0.755   0.660   0.696   0.777   0.827   0.824   0.833   0.867   0.828   0.800   0.824   0.828   0.726   0.726   0.744   0.788   0.770   0.810   0.780   0.834   0.876   0.851   0.844   0.877   0.929   0.952   0.965   0.923   0.939   0.957   0.934   0.905   0.922   0.895   0.914   0.881   0.786   0.743   0.772   0.765   0.719   0.674   0.659   0.658   0.710   0.670   0.683   0.681   0.699   0.723   0.715
   289.30    0.727   0.703   0.752   0.742   0.763   0.734   0.706   0.698   0.672   0.716   0.690   0.708   0.738   0.722   0.709   0.696   0.774   0.787   0.743   0.778   0.739   0.739   0.699   0.660   0.641   0.647   0.610   0.629   0.658   0.672   0.723   0.685   0.645   0.643   0.623   0.634   0.636   0.718   0.691   0.734   0.771   0.809   0.760   0.755   0.723   0.695   0.651   0.713   0.765   0.761   0.754   0.670   0.670   0.713   0.728   0.688   0.689   0.705   0.683   0.694   0.680   0.699   0.707   0.687   0.689   0.713   0.724   0.744   0.731   0.767   0.755   0.730   0.734   0.682   0.689   0.677   0.643   0.640   0.624   0.610   0.603   0.609   0.622   0.637   0.627   0.664   0.708   0.685   0.672   0.622   0.616   0.612   0.635   0.675   0.651   0.646   0.597   0.642   0.703   0.726   0.699   0.724   0.778   0.765   0.693   0.740   0.753   0.672   0.654   0.703   0.658   0.633   0.630   0.674   0.656   0.700   0.702   0.683   0.663   0.664   0.691   0.682   0.702   0.695   0.683   0.662   0.669   0.655   0.654   0.623   0.642   0.595   0.608   0.688   0.782   0.734   0.731   0.729   0.729   0.711   0.758   0.768   0.755   0.692   0.732   0.775   0.790   0.805   0.749   0.793   0.763   0.735   0.792   0.752   0.718   0.659   0.717   0.739   0.800   0.836   0.860   0.878   0.891   0.900   0.834   0.882   0.940   0.940   0.916   0.933   0.870   0.886   0.920   0.876   0.857   0.873   0.865   0.878   0.777   0.757   0.838   0.872   0.805   0.736   0.724   0.689   0.676   0.661   0.671   0.666   0.719   0.747   0.688
   280.00    0.748   0.725   0.694   0.784   0.765   0.739   0.723   0.685   0.641   0.668   0.699   0.718   0.789   0.733   0.733   0.749   0.801   0.806   0.774   0.768   0.738   0.732   0.668   0.675   0.647   0.614   0.596   0.597   0.625   0.670   0.718   0.697   0.683   0.671   0.634   0.678   0.717   0.730   0.731   0.735   0.755   0.784   0.749   0.720   0.759   0.723   0.717   0.755   0.727   0.778   0.759   0.699   0.665   0.723   0.717   0.670   0.680   0.682   0.667   0.665   0.704   0.687   0.656   0.686   0.657   0.724   0.707   0.743   0.708   0.706   0.714   0.731   0.726   0.696   0.652   0.654   0.681   0.639   0.612   0.568   0.574   0.602   0.573   0.607   0.642   0.652   0.699   0.722   0.665   0.655   0.612   0.621   0.618   0.630   0.650   0.676   0.605   0.651   0.677   0.714   0.726   0.740   0.739   0.742   0.735   0.742   0.694   0.700   0.641   0.655   0.682   0.687   0.681   0.682   0.651   0.666   0.662   0.683   0.687   0.629   0.690   0.675   0.740   0.721   0.677   0.642   0.645   0.639   0.607   0.648   0.679   0.619   0.624   0.687   0.782   0.779   0.745   0.747   0.734   0.730   0.757   0.742   0.729   0.724   0.723   0.771   0.804   0.822   0.832   0.773   0.774   0.741   0.770   0.757   0.776   0.706   0.757   0.792   0.822   0.831   0.913   0.886   0.845   0.850   0.854   0.908   0.875   0.955   1.014   0.900   0.923   0.891   0.912   0.821   0.814   0.811   0.838   0.832   0.800   0.850   0.836   0.831   0.766   0.791   0.720   0.715   0.694   0.729   0.718   0.694   0.728   0.750   0.715
   270.70    0.743   0.768   0.726   0.774   0.776   0.739   0.714   0.715   0.718   0.671   0.650   0.704   0.742   0.785   0.738   0.779   0.780   0.780   0.787   0.749   0.750   0.751   0.660   0.639   0.664   0.642   0.639   0.613   0.662   0.723   0.749   0.734   0.691   0.708   0.710   0.720   0.770   0.773   0.721   0.738   0.732   0.755   0.798   0.748   0.738   0.701   0.726   0.743   0.712   0.704   0.742   0.701   0.682   0.710   0.678   0.685   0.688   0.684   0.675   0.663   0.651   0.688   0.676   0.674   0.692   0.688   0.670   0.732   0.704   0.667   0.693   0.703   0.674   0.680   0.610   0.617   0.622   0.665   0.621   0.548   0.586   0.639   0.613   0.603   0.655   0.719   0.689   0.688   0.676   0.679   0.660   0.585   0.651   0.659   0.640   0.659   0.627   0.647   0.678   0.705   0.760   0.731   0.708   0.696   0.697   0.663   0.696   0.686   0.688   0.653   0.648   0.647   0.653   0.625   0.660   0.629   0.637   0.639   0.675   0.673   0.690   0.680   0.721   0.707   0.662   0.646   0.657   0.600   0.643   0.644   0.645   0.685   0.708   0.664   0.764   0.794   0.785   0.766   0.733   0.738   0.749   0.761   0.751   0.766   0.706   0.766   0.773   0.789   0.795   0.733   0.732   0.748   0.771   0.749   0.800   0.805   0.776   0.846   0.844   0.914   0.926   0.904   0.883   0.834   0.829   0.863   0.909   0.948   0.982   1.006   0.947   0.911   0.903   0.867   0.803   0.778   0.799   0.867   0.829   0.819   0.819   0.777   0.802   0.771   0.746   0.694   0.680   0.723   0.746   0.763   0.748   0.730   0.739
   261.40    0.751   0.714   0.712   0.770   0.785   0.810   0.758   0.771   0.761   0.681   0.701   0.716   0.768   0.732   0.730   0.769   0.768   0.759   0.758   0.746   0.740   0.717   0.675   0.623   0.633   0.658   0.656   0.649   0.652   0.710   0.726   0.730   0.720   0.715   0.772   0.757   0.705   0.738   0.762   0.704   0.694   0.746   0.747   0.710   0.723   0.719   0.727   0.688   0.687   0.694   0.668   0.642   0.664   0.681   0.683   0.731   0.664   0.636   0.701   0.703   0.663   0.694   0.701   0.676   0.695   0.645   0.668   0.720   0.735   0.715   0.679   0.674   0.671   0.681   0.642   0.605   0.606   0.621   0.593   0.573   0.620   0.638   0.660   0.621   0.699   0.711   0.710   0.728   0.713   0.671   0.672   0.659   0.596   0.690   0.641   0.689   0.663   0.695   0.683   0.756   0.778   0.746   0.754   0.671   0.679   0.672   0.620   0.638   0.624   0.658   0.652   0.689   0.670   0.579   0.631   0.669   0.626   0.648   0.642   0.675   0.698   0.690   0.672   0.664   0.651   0.645   0.607   0.650   0.616   0.687   0.698   0.677   0.658   0.696   0.716   0.785   0.779   0.782   0.748   0.731   0.729   0.695   0.733   0.744   0.752   0.757   0.698   0.782   0.771   0.747   0.713   0.758   0.793   0.795   0.765   0.806   0.838   0.804   0.813   0.872   0.896   0.888   0.831   0.815   0.848   0.915   0.886   0.971   0.934   0.956   0.972   0.942   0.945   0.874   0.847   0.853   0.867   0.886   0.862   0.817   0.864   0.813   0.803   0.845   0.779   0.747   0.690   0.723   0.763   0.743   0.720   0.736   0.751
   252.10    0.690   0.727   0.732   0.822   0.870   0.848   0.805   0.788   0.758   0.714   0.711   0.737   0.734   0.720   0.729   0.756   0.750   0.742   0.706   0.706   0.708   0.691   0.709   0.652   0.632   0.668   0.669   0.658   0.674   0.721   0.716   0.729   0.754   0.720   0.781   0.748   0.744   0.752   0.729   0.720   0.771   0.732   0.699   0.649   0.703   0.715   0.701   0.740   0.681   0.656   0.657   0.663   0.718   0.684   0.698   0.756   0.785   0.692   0.693   0.698   0.690   0.674   0.691   0.685   0.633   0.695   0.712   0.736   0.744   0.720   0.713   0.712   0.674   0.622   0.593   0.575   0.598   0.637   0.599   0.609   0.654   0.659   0.655   0.712   0.689   0.722   0.726   0.701   0.734   0.633   0.648   0.614   0.587   0.625   0.629   0.688   0.682   0.670   0.711   0.758   0.739   0.668   0.676   0.649   0.655   0.666   0.629   0.639   0.619   0.646   0.652   0.664   0.669   0.620   0.667   0.675   0.684   0.671   0.667   0.647   0.672   0.636   0.681   0.678   0.686   0.649   0.611   0.636   0.620   0.651   0.633   0.711   0.687   0.676   0.719   0.734   0.781   0.726   0.689   0.716   0.700   0.704   0.686   0.677   0.747   0.713   0.734   0.733   0.744   0.722   0.717   0.728   0.763   0.766   0.722   0.762   0.779   0.789   0.805   0.856   0.893   0.960   0.889   0.878   0.811   0.835   0.878   0.964   0.985   0.985   0.932   0.911   0.959   0.934   0.895   0.887   0.911   0.879   0.895   0.900   0.840   0.859   0.835   0.827   0.830   0.719   0.702   0.751   0.702   0.709   0.683   0.696   0.741
   242.80    0.736   0.760   0.771   0.808   0.891   0.900   0.921   0.803   0.739   0.738   0.691   0.714   0.688   0.740   0.762   0.737   0.768   0.725   0.706   0.671   0.655   0.679   0.718   0.714   0.694   0.637   0.667   0.643   0.703   0.722   0.697   0.793   0.773   0.762   0.794   0.786   0.740   0.749   0.733   0.736   0.782   0.811   0.791   0.774   0.716   0.713   0.770   0.752   0.677   0.643   0.646   0.661   0.672   0.717   0.704   0.753   0.736   0.711   0.701   0.666   0.646   0.662   0.656   0.648   0.665   0.672   0.704   0.696   0.740   0.694   0.707   0.692   0.644   0.629   0.643   0.618   0.638   0.663   0.633   0.604   0.683   0.686   0.708   0.694   0.688   0.717   0.731   0.709   0.670   0.669   0.617   0.609   0.636   0.650   0.653   0.716   0.671   0.618   0.717   0.756   0.719   0.600   0.645   0.618   0.670   0.708   0.711   0.663   0.623   0.659   0.656   0.658   0.662   0.612   0.666   0.651   0.721   0.735   0.660   0.664   0.632   0.615   0.607   0.657   0.669   0.610   0.581   0.601   0.639   0.691   0.629   0.657   0.633   0.664   0.664   0.702   0.757   0.705   0.712   0.696   0.696   0.704   0.690   0.700   0.755   0.717   0.742   0.722   0.692   0.726   0.686   0.715   0.730   0.693   0.665   0.745   0.755   0.770   0.777   0.857   0.888   0.902   0.878   0.840   0.841   0.894   0.911   0.946   0.983   1.006   0.954   0.931   0.904   0.937   0.876   0.888   0.923   0.905   0.925   0.860   0.845   0.797   0.832   0.816   0.819   0.687   0.734   0.723   0.742   0.690   0.666   0.655   0.709
   233.50    0.836   0.780   0.800   0.838   0.853   0.891   0.867   0.825   0.709   0.672   0.703   0.698   0.736   0.768   0.767   0.724   0.756   0.704   0.673   0.654   0.666   0.675   0.685   0.687   0.693   0.638   0.630   0.696   0.694   0.716   0.730   0.801   0.789   0.780   0.766   0.787   0.786   0.777   0.749   0.796   0.802   0.875   0.828   0.785   0.758   0.768   0.759   0.771   0.668   0.648   0.681   0.627   0.666   0.692   0.698   0.707   0.721   0.717   0.726   0.657   0.628   0.626   0.677   0.633   0.622   0.675   0.660   0.704   0.703   0.697   0.665   0.686   0.648   0.643   0.638   0.680   0.672   0.663   0.639   0.652   0.657   0.677   0.648   0.674   0.679   0.659   0.714   0.694   0.662   0.656   0.643   0.596   0.632   0.675   0.665   0.650   0.659   0.645   0.700   0.723   0.690   0.654   0.617   0.660   0.677   0.688   0.743   0.723   0.683   0.653   0.673   0.695   0.623   0.629   0.629   0.631   0.695   0.679   0.668   0.622   0.652   0.665   0.563   0.603   0.676   0.634   0.604   0.611   0.636   0.669   0.641   0.657   0.696   0.673   0.680   0.698   0.710   0.726   0.703   0.711   0.699   0.713   0.688   0.727   0.721   0.741   0.734   0.763   0.771   0.750   0.699   0.694   0.728   0.661   0.637   0.693   0.673   0.699   0.697   0.776   0.814   0.892   0.803   0.772   0.829   0.957   0.929   0.966   0.973   0.966   0.930   0.909   0.899   0.919   0.931   0.883   0.922   0.926   0.918   0.892   0.846   0.826   0.837   0.813   0.737   0.744   0.742   0.697   0.711   0.714   0.641   0.695   0.702
   224.20    0.872   0.852   0.813   0.827   0.824   0.872   0.829   0.774   0.707   0.700   0.723   0.766   0.752   0.741   0.719   0.732   0.700   0.640   0.659   0.648   0.644   0.669   0.636   0.662   0.649   0.661   0.640   0.648   0.688   0.717   0.771   0.771   0.714   0.716   0.733   0.708   0.748   0.784   0.758   0.803   0.806   0.867   0.840   0.843   0.789   0.770   0.765   0.700   0.672   0.674   0.627   0.656   0.684   0.669   0.686   0.715   0.730   0.726   0.723   0.661   0.640   0.627   0.669   0.690   0.632   0.674   0.695   0.704   0.713   0.744   0.724   0.711   0.693   0.682   0.713   0.697   0.646   0.651   0.673   0.664   0.661   0.632   0.661   0.687   0.657   0.692   0.703   0.677   0.654   0.618   0.650   0.601   0.610   0.703   0.725   0.685   0.687   0.608   0.653   0.710   0.677   0.691   0.679   0.706   0.728   0.698   0.723   0.770   0.728   0.652   0.694   0.668   0.622   0.642   0.677   0.663   0.681   0.651   0.644   0.589   0.641   0.606   0.609   0.618   0.641   0.630   0.567   0.575   0.626   0.658   0.633   0.654   0.690   0.687   0.665   0.671   0.734   0.712   0.678   0.663   0.648   0.648   0.685   0.704   0.739   0.771   0.708   0.714   0.701   0.698   0.714   0.702   0.705   0.665   0.607   0.676   0.645   0.700   0.691   0.740   0.731   0.823   0.841   0.819   0.845   0.913   0.937   0.948   0.909   0.968   0.940   0.936   0.876   0.816   0.851   0.906   0.941   0.929   0.898   0.877   0.836   0.864   0.853   0.846   0.767   0.751   0.779   0.769   0.776   0.686   0.684   0.696   0.701
   214.90    0.859   0.809   0.836   0.859   0.826   0.835   0.823   0.780   0.756   0.671   0.701   0.712   0.711   0.702   0.691   0.690   0.637   0.613   0.618   0.602   0.637   0.660   0.689   0.673   0.616   0.620   0.630   0.674   0.676   0.706   0.720   0.739   0.738   0.716   0.663   0.703   0.754   0.807   0.806   0.787   0.868   0.824   0.828   0.822   0.831   0.767   0.745   0.706   0.740   0.669   0.658   0.662   0.656   0.647   0.699   0.687   0.673   0.689   0.682   0.673   0.658   0.633   0.660   0.689   0.675   0.728   0.668   0.703   0.740   0.746   0.744   0.727   0.725   0.706   0.707   0.724   0.696   0.657   0.680   0.666   0.671   0.655   0.645   0.668   0.656   0.662   0.661   0.671   0.662   0.636   0.643   0.615   0.660   0.699   0.727   0.719   0.713   0.667   0.671   0.662   0.676   0.709   0.700   0.704   0.695   0.681   0.716   0.699   0.723   0.730   0.670   0.663   0.682   0.654   0.704   0.663   0.701   0.660   0.597   0.611   0.619   0.604   0.610   0.629   0.612   0.625   0.639   0.592   0.631   0.650   0.659   0.686   0.663   0.730   0.695   0.651   0.706   0.675   0.666   0.636   0.652   0.681   0.724   0.675   0.715   0.705   0.716   0.727   0.672   0.676   0.701   0.716   0.666   0.628   0.640   0.634   0.647   0.659   0.645   0.718   0.693   0.746   0.771   0.797   0.874   0.862   0.918   0.959   0.913   0.990   0.930   0.971   0.878   0.828   0.872   0.880   0.917   0.922   0.858   0.833   0.853   0.882   0.826   0.808   0.793   0.817   0.787   0.736   0.730   0.698   0.690   0.647   0.723
   205.60    0.804   0.782   0.809   0.843   0.817   0.811   0.804   0.755   0.701   0.743   0.704   0.663   0.688   0.654   0.671   0.669   0.617   0.635   0.628   0.599   0.658   0.682   0.687   0.709   0.692   0.689   0.679   0.692   0.717   0.701   0.704   0.689   0.731   0.705   0.713   0.677   0.698   0.755   0.797   0.771   0.807   0.833   0.750   0.764   0.769   0.762   0.734   0.758   0.694   0.689   0.675   0.655   0.612   0.622   0.633   0.658   0.676   0.689   0.693   0.663   0.637   0.641   0.643   0.658   0.691   0.661   0.692   0.739   0.792   0.708   0.738   0.732   0.680   0.640   0.693   0.698   0.661   0.675   0.698   0.680   0.675   0.665   0.643   0.662   0.614   0.600   0.655   0.668   0.646   0.663   0.658   0.661   0.683   0.731   0.734   0.646   0.677   0.687   0.701   0.707   0.678   0.655   0.680   0.694   0.646   0.676   0.674   0.705   0.730   0.669   0.681   0.687   0.714   0.696   0.698   0.683   0.676   0.686   0.625   0.578   0.579   0.606   0.647   0.613   0.614   0.601   0.684   0.671   0.649   0.669   0.698   0.652   0.689   0.709   0.709   0.671   0.731   0.720   0.669   0.695   0.708   0.728   0.706   0.717   0.702   0.689   0.685   0.675   0.652   0.655   0.698   0.671   0.676   0.659   0.676   0.636   0.685   0.714   0.674   0.686   0.725   0.714   0.756   0.775   0.827   0.823   0.824   0.883   0.864   0.914   0.896   0.979   0.887   0.897   0.855   0.857   0.888   0.901   0.871   0.849   0.850   0.861   0.855   0.841   0.782   0.761   0.773   0.767   0.712   0.692   0.661   0.727   0.692
   196.30    0.823   0.816   0.776   0.764   0.842   0.830   0.810   0.718   0.719   0.713   0.686   0.674   0.670   0.615   0.608   0.612   0.590   0.612   0.630   0.615   0.625   0.659   0.692   0.699   0.707   0.718   0.698   0.689   0.740   0.705   0.674   0.725   0.712   0.671   0.724   0.698   0.738   0.746   0.730   0.733   0.737   0.790   0.772   0.701   0.703   0.730   0.693   0.658   0.653   0.686   0.641   0.666   0.655   0.648   0.581   0.632   0.629   0.690   0.701   0.703   0.689   0.655   0.717   0.687   0.652   0.677   0.717   0.737   0.738   0.727   0.696   0.684   0.657   0.637   0.647   0.686   0.698   0.628   0.666   0.675   0.701   0.695   0.635   0.613   0.594   0.622   0.640   0.674   0.628   0.610   0.648   0.640   0.665   0.713   0.744   0.689   0.692   0.703   0.702   0.650   0.667   0.710   0.726   0.693   0.662   0.628   0.649   0.710   0.703   0.715   0.681   0.678   0.728   0.740   0.726   0.679   0.723   0.664   0.648   0.595   0.583   0.605   0.614   0.596   0.607   0.624   0.694   0.694   0.687   0.745   0.702   0.730   0.755   0.720   0.724   0.741   0.741   0.706   0.700   0.759   0.811   0.769   0.681   0.704   0.725   0.677   0.619   0.642   0.608   0.617   0.624   0.644   0.629   0.615   0.661   0.690   0.730   0.771   0.699   0.707   0.700   0.714   0.723   0.739   0.779   0.827   0.882   0.872   0.847   0.863   0.899   0.952   0.950   0.901   0.862   0.856   0.884   0.884   0.851   0.830   0.822   0.844   0.878   0.906   0.835   0.799   0.807   0.773   0.752   0.698   0.674   0.750   0.719
   187.00    0.794   0.785   0.713   0.735   0.808   0.803   0.775   0.725   0.693   0.705   0.713   0.716   0.691   0.607   0.626   0.613   0.648   0.635   0.680   0.624   0.653   0.668   0.649   0.685   0.675   0.708   0.705   0.738   0.726   0.700   0.672   0.715   0.678   0.701   0.731   0.696   0.726   0.726   0.726   0.729   0.688   0.713   0.744   0.739   0.715   0.712   0.745   0.715   0.682   0.708   0.633   0.601   0.640   0.613   0.617   0.644   0.659   0.705   0.765   0.731   0.742   0.761   0.780   0.731   0.694   0.654   0.688   0.753   0.730   0.689   0.637   0.637   0.642   0.654   0.655   0.633   0.661   0.615   0.647   0.658   0.699   0.689   0.601   0.592   0.621   0.647   0.649   0.639   0.604   0.557   0.622   0.671   0.684   0.737   0.760   0.722   0.687   0.639   0.624   0.650   0.617   0.679   0.699   0.677   0.705   0.669   0.664   0.728   0.727   0.741   0.714   0.726   0.727   0.756   0.730   0.659   0.704   0.665   0.640   0.633   0.616   0.648   0.666   0.653   0.642   0.646   0.696   0.674   0.684   0.696   0.718   0.734   0.698   0.730   0.703   0.718   0.775   0.780   0.715   0.773   0.850   0.807   0.766   0.719   0.755   0.696   0.673   0.624   0.617   0.605   0.641   0.629   0.634   0.624   0.658   0.692   0.750   0.793   0.705   0.718   0.674   0.703   0.709   0.689   0.732   0.821   0.829   0.878   0.879   0.903   0.899   0.916   0.917   0.845   0.854   0.885   0.870   0.820   0.838   0.873   0.859   0.892   0.910   0.910   0.896   0.853   0.797   0.797   0.762   0.721   0.770   0.733   0.739
   177.70    0.717   0.755   0.707   0.701   0.760   0.812   0.752   0.695   0.750   0.765   0.668   0.687   0.708   0.654   0.651   0.652   0.607   0.569   0.602   0.628   0.629   0.623   0.622   0.606   0.639   0.644   0.695   0.683   0.687   0.709   0.712   0.715   0.711   0.702   0.734   0.673   0.715   0.696   0.728   0.712   0.719   0.688   0.688   0.671   0.681   0.670   0.678   0.732   0.705   0.732   0.650   0.633   0.601   0.590   0.638   0.672   0.668   0.688   0.771   0.739   0.779   0.745   0.754   0.713   0.660   0.671   0.660   0.745   0.721   0.679   0.646   0.637   0.634   0.654   0.605   0.658   0.675   0.631   0.634   0.639   0.651   0.654   0.674   0.630   0.608   0.661   0.668   0.666   0.638   0.616   0.669   0.667   0.720   0.746   0.790   0.734   0.696   0.687   0.668   0.634   0.618   0.660   0.658   0.665   0.664   0.655   0.685   0.713   0.729   0.727   0.689   0.753   0.726   0.730   0.666   0.669   0.649   0.654   0.623   0.665   0.609   0.613   0.668   0.682   0.649   0.646   0.703   0.714   0.685   0.686   0.688   0.667   0.699   0.744   0.721   0.715   0.738   0.773   0.838   0.836   0.838   0.837   0.797   0.746   0.740   0.720   0.693   0.639   0.613   0.644   0.631   0.623   0.638   0.618   0.614   0.673   0.720   0.751   0.729   0.746   0.725   0.724   0.684   0.729   0.698   0.774   0.807   0.865   0.855   0.871   0.907   0.851   0.903   0.849   0.881   0.898   0.883   0.839   0.801   0.858   0.908   0.870   0.832   0.895   0.850   0.901   0.791   0.816   0.777   0.774   0.747   0.731   0.766
   168.40    0.766   0.785   0.721   0.750   0.791   0.743   0.780   0.792   0.785   0.768   0.707   0.707   0.759   0.728   0.649   0.638   0.581   0.580   0.587   0.609   0.619   0.660   0.609   0.631   0.618   0.646   0.687   0.683   0.656   0.678   0.712   0.652   0.687   0.723   0.693   0.707   0.690   0.732   0.766   0.754   0.752   0.730   0.747   0.730   0.698   0.678   0.677   0.730   0.695   0.710   0.615   0.642   0.636   0.627   0.643   0.657   0.730   0.722   0.770   0.801   0.804   0.751   0.702   0.717   0.683   0.678   0.690   0.726   0.774   0.699   0.610   0.651   0.632   0.651   0.625   0.630   0.669   0.632   0.606   0.585   0.611   0.649   0.690   0.667   0.600   0.608   0.647   0.646   0.718   0.681   0.635   0.657   0.703   0.737   0.755   0.779   0.695   0.693   0.674   0.676   0.667   0.690   0.700   0.688   0.687   0.634   0.657   0.700   0.737   0.758   0.737   0.781   0.741   0.734   0.730   0.685   0.657   0.605   0.611   0.650   0.648   0.673   0.684   0.653   0.618   0.638   0.693   0.715   0.703   0.758   0.719   0.714   0.682   0.692   0.702   0.759   0.774   0.773   0.781   0.787   0.822   0.850   0.769   0.764   0.779   0.719   0.667   0.665   0.661   0.642   0.627   0.699   0.657   0.638   0.608   0.651   0.668   0.722   0.731   0.700   0.741   0.781   0.705   0.741   0.728   0.771   0.792   0.810   0.871   0.856   0.879   0.838   0.891   0.910   0.921   0.904   0.859   0.846   0.781   0.864   0.869   0.882   0.890   0.856   0.841   0.849   0.751   0.718   0.766   0.774   0.789   0.764   0.790
   159.10    0.800   0.762   0.719   0.753   0.786   0.757   0.757   0.778   0.782   0.825   0.776   0.788   0.751   0.718   0.711   0.649   0.626   0.628   0.594   0.609   0.598   0.616   0.608   0.664   0.629   0.590   0.648   0.678   0.722   0.709   0.682   0.727   0.689   0.686   0.703   0.699   0.713   0.709   0.761   0.744   0.751   0.776   0.790   0.757   0.694   0.721   0.721   0.684   0.719   0.730   0.662   0.663   0.640   0.653   0.641   0.660   0.676   0.700   0.748   0.804   0.808   0.757   0.731   0.715   0.732   0.681   0.708   0.752   0.785   0.720   0.718   0.719   0.710   0.677   0.660   0.667   0.705   0.680   0.638   0.623   0.629   0.622   0.685   0.669   0.645   0.688   0.643   0.683   0.675   0.675   0.650   0.706   0.700   0.700   0.710   0.707   0.697   0.671   0.683   0.678   0.686   0.687   0.686   0.695   0.687   0.660   0.697   0.752   0.766   0.807   0.790   0.788   0.779   0.703   0.657   0.694   0.624   0.631   0.659   0.661   0.619   0.629   0.681   0.674   0.711   0.658   0.697   0.733   0.719   0.739   0.666   0.682   0.665   0.694   0.718   0.755   0.767   0.751   0.771   0.789   0.799   0.811   0.732   0.776   0.776   0.697   0.663   0.637   0.630   0.659   0.653   0.698   0.666   0.672   0.679   0.639   0.647   0.703   0.778   0.720   0.747   0.745   0.723   0.796   0.840   0.816   0.824   0.839   0.833   0.838   0.884   0.881   0.831   0.874   0.845   0.853   0.886   0.824   0.817   0.847   0.838   0.823   0.845   0.846   0.809   0.733   0.740   0.773   0.794   0.777   0.782   0.820   0.814
   149.80    0.806   0.763   0.791   0.791   0.817   0.753   0.785   0.757   0.783   0.794   0.848   0.786   0.788   0.766   0.662   0.645   0.618   0.627   0.637   0.626   0.613   0.639   0.643   0.634   0.644   0.632   0.669   0.729   0.750   0.692   0.716   0.674   0.692   0.683   0.718   0.765   0.752   0.762   0.729   0.793   0.787   0.775   0.770   0.774   0.763   0.763   0.736   0.719   0.721   0.698   0.680   0.659   0.703   0.643   0.653   0.669   0.703   0.738   0.736   0.795   0.813   0.820   0.774   0.735   0.682   0.695   0.694   0.766   0.806   0.775   0.771   0.720   0.731   0.683   0.701   0.697   0.710   0.671   0.667   0.664   0.642   0.682   0.702   0.685   0.664   0.708   0.670   0.699   0.725   0.674   0.672   0.753   0.729   0.696   0.649   0.652   0.670   0.687   0.688   0.681   0.686   0.699   0.685   0.709   0.682   0.708   0.700   0.758   0.790   0.816   0.816   0.823   0.828   0.723   0.710   0.703   0.664   0.625   0.671   0.643   0.686   0.665   0.672   0.717   0.705   0.735   0.762   0.714   0.722   0.728   0.693   0.671   0.670   0.697   0.729   0.730   0.771   0.758   0.782   0.795   0.808   0.779   0.766   0.760   0.754   0.696   0.735   0.666   0.671   0.702   0.682   0.665   0.665   0.675   0.705   0.666   0.630   0.690   0.708   0.687   0.678   0.750   0.749   0.810   0.845   0.824   0.801   0.836   0.832   0.801   0.851   0.838   0.811   0.816   0.831   0.878   0.812   0.859   0.807   0.805   0.771   0.776   0.822   0.839   0.770   0.752   0.734   0.780   0.801   0.768   0.762   0.803   0.809
   140.50    0.787   0.820   0.753   0.767   0.776   0.741   0.733   0.765   0.775   0.755   0.769   0.772   0.763   0.745   0.684   0.675   0.647   0.605   0.598   0.636   0.626   0.621   0.642   0.626   0.622   0.655   0.734   0.771   0.726   0.723   0.719   0.667   0.711   0.727   0.750   0.736   0.709   0.732   0.778   0.805   0.783   0.773   0.757   0.786   0.768   0.756   0.753   0.736   0.727   0.711   0.688   0.695   0.748   0.719   0.676   0.675   0.695   0.750   0.723   0.744   0.788   0.774   0.800   0.747   0.684   0.695   0.684   0.746   0.786   0.797   0.751   0.706   0.702   0.691   0.715   0.697   0.671   0.686   0.662   0.681   0.649   0.684   0.720   0.674   0.668   0.666   0.695   0.709   0.744   0.701   0.719   0.700   0.658   0.719   0.647   0.635   0.651   0.698   0.745   0.722   0.650   0.668   0.692   0.644   0.699   0.763   0.749   0.801   0.838   0.740   0.760   0.796   0.749   0.735   0.752   0.720   0.694   0.655   0.680   0.638   0.676   0.693   0.639   0.687   0.742   0.762   0.752   0.704   0.730   0.766   0.680   0.719   0.664   0.696   0.712   0.730   0.701   0.787   0.774   0.745   0.807   0.782   0.776   0.782   0.766   0.731   0.740   0.676   0.702   0.703   0.710   0.673   0.683   0.725   0.718   0.723   0.666   0.663   0.671   0.673   0.652   0.685   0.770   0.807   0.887   0.827   0.889   0.839   0.820   0.816   0.774   0.785   0.819   0.835   0.813   0.824   0.797   0.816   0.871   0.756   0.722   0.752   0.790   0.788   0.804   0.796   0.724   0.731   0.758   0.748   0.735   0.773   0.798
   131.20    0.805   0.783   0.763   0.804   0.770   0.747   0.691   0.768   0.766   0.730   0.714   0.759   0.762   0.724   0.739   0.696   0.632   0.654   0.621   0.614   0.617   0.654   0.615   0.634   0.661   0.719   0.721   0.719   0.769   0.740   0.706   0.716   0.705   0.727   0.766   0.724   0.716   0.730   0.704   0.781   0.791   0.821   0.805   0.780   0.782   0.808   0.799   0.781   0.776   0.770   0.730   0.732   0.765   0.723   0.712   0.715   0.693   0.733   0.775   0.742   0.737   0.723   0.714   0.728   0.707   0.694   0.690   0.760   0.795   0.783   0.754   0.735   0.761   0.720   0.710   0.743   0.699   0.677   0.658   0.663   0.654   0.650   0.717   0.699   0.675   0.613   0.697   0.699   0.737   0.712   0.696   0.640   0.648   0.660   0.663   0.629   0.616   0.679   0.729   0.678   0.687   0.682   0.661   0.669   0.694   0.781   0.788   0.817   0.857   0.792   0.749   0.777   0.786   0.766   0.735   0.734   0.703   0.685   0.659   0.651   0.610   0.666   0.619   0.634   0.667   0.708   0.707   0.698   0.791   0.770   0.689   0.727   0.707   0.739   0.732   0.773   0.748   0.739   0.767   0.748   0.794   0.832   0.749   0.795   0.750   0.774   0.769   0.719   0.724   0.757   0.718   0.684   0.697   0.751   0.727   0.739   0.691   0.665   0.682   0.611   0.626   0.731   0.773   0.819   0.823   0.864   0.902   0.832   0.837   0.859   0.826   0.779   0.783   0.804   0.769   0.770   0.732   0.794   0.786   0.780   0.706   0.728   0.798   0.796   0.785   0.825   0.768   0.760   0.807   0.719   0.710   0.766   0.768
   121.90    0.805   0.813   0.776   0.767   0.784   0.792   0.804   0.792   0.758   0.708   0.731   0.718   0.726   0.720   0.685   0.715   0.641   0.622   0.552   0.596   0.623   0.614   0.639   0.609   0.665   0.728   0.708   0.778   0.796   0.746   0.706   0.719   0.717   0.689   0.709   0.662   0.653   0.722   0.744   0.777   0.836   0.834   0.814   0.787   0.800   0.866   0.921   0.861   0.810   0.820   0.774   0.737   0.772   0.736   0.734   0.742   0.663   0.730   0.735   0.757   0.728   0.694   0.707   0.677   0.719   0.766   0.728   0.742   0.741   0.777   0.749   0.733   0.719   0.721   0.747   0.751   0.748   0.734   0.710   0.684   0.691   0.675   0.691   0.704   0.691   0.618   0.624   0.673   0.689   0.707   0.673   0.659   0.669   0.640   0.635   0.614   0.601   0.668   0.703   0.724   0.664   0.663   0.699   0.671   0.743   0.767   0.841   0.867   0.893   0.793   0.767   0.783   0.787   0.775   0.684   0.725   0.710   0.678   0.649   0.594   0.593   0.645   0.603   0.620   0.631   0.690   0.693   0.730   0.754   0.734   0.714   0.698   0.714   0.738   0.784   0.783   0.791   0.761   0.769   0.768   0.795   0.803   0.780   0.760   0.735   0.808   0.804   0.768   0.759   0.744   0.712   0.729   0.726   0.699   0.774   0.717   0.638   0.703   0.639   0.662   0.637   0.729   0.830   0.813   0.829   0.836   0.868   0.851   0.869   0.814   0.754   0.749   0.742   0.757   0.754   0.775   0.806   0.784   0.746   0.776   0.789   0.760   0.820   0.790   0.804   0.776   0.731   0.722   0.782   0.703   0.758   0.772   0.786
   112.60    0.778   0.761   0.824   0.812   0.810   0.831   0.753   0.752   0.714   0.697   0.701   0.681   0.621   0.649   0.679   0.675   0.662   0.628   0.599   0.566   0.604   0.582   0.629   0.637   0.660   0.657   0.693   0.750   0.761   0.708   0.708   0.745   0.698   0.653   0.617   0.684   0.685   0.724   0.731   0.797   0.813   0.835   0.798   0.798   0.819   0.842   0.870   0.792   0.773   0.794   0.742   0.715   0.728   0.736   0.723   0.766   0.682   0.720   0.701   0.704   0.777   0.737   0.686   0.670   0.731   0.770   0.760   0.755   0.803   0.818   0.800   0.759   0.759   0.718   0.756   0.721   0.677   0.705   0.722   0.729   0.699   0.643   0.671   0.714   0.686   0.635   0.625   0.620   0.677   0.701   0.714   0.709   0.687   0.679   0.664   0.665   0.686   0.677   0.698   0.678   0.690   0.735   0.713   0.708   0.740   0.799   0.842   0.887   0.919   0.847   0.814   0.774   0.805   0.729   0.710   0.751   0.726   0.692   0.655   0.682   0.648   0.655   0.673   0.698   0.653   0.715   0.707   0.735   0.722   0.754   0.752   0.749   0.724   0.774   0.759   0.768   0.765   0.803   0.752   0.779   0.824   0.742   0.769   0.734   0.755   0.793   0.808   0.787   0.781   0.741   0.747   0.739   0.709   0.739   0.734   0.732   0.748   0.671   0.670   0.684   0.697   0.728   0.749   0.804   0.843   0.853   0.824   0.822   0.827   0.840   0.805   0.754   0.699   0.716   0.747   0.790   0.810   0.777   0.734   0.707   0.785   0.815   0.793   0.800   0.804   0.759   0.712   0.710   0.771   0.741   0.766   0.805   0.741
   103.30    0.763   0.769   0.806   0.809   0.812   0.771   0.794   0.773   0.725   0.679   0.645   0.616   0.615   0.630   0.640   0.620   0.634   0.645   0.602   0.590   0.628   0.594   0.654   0.654   0.607   0.682   0.727   0.744   0.757   0.746   0.765   0.750   0.684   0.645   0.648   0.680   0.687   0.757   0.754   0.797   0.806   0.778   0.791   0.820   0.789   0.813   0.776   0.713   0.706   0.711   0.669   0.677   0.735   0.739   0.740   0.751   0.721   0.681   0.714   0.723   0.693   0.698   0.652   0.658   0.737   0.802   0.810   0.809   0.832   0.838   0.784   0.758   0.724   0.769   0.731   0.713   0.677   0.684   0.692   0.732   0.704   0.674   0.686   0.700   0.721   0.674   0.677   0.688   0.688   0.689   0.704   0.728   0.707   0.692   0.681   0.705   0.688   0.668   0.715   0.686   0.670   0.738   0.743   0.768   0.814   0.791   0.772   0.857   0.885   0.922   0.864   0.829   0.836   0.778   0.736   0.724   0.717   0.721   0.711   0.704   0.684   0.674   0.712   0.696   0.670   0.704   0.691   0.750   0.760   0.736   0.744   0.778   0.728   0.758   0.760   0.750   0.735   0.778   0.793   0.772   0.751   0.722   0.756   0.756   0.754   0.830   0.841   0.824   0.817   0.803   0.809   0.743   0.725   0.691   0.699   0.708   0.708   0.703   0.712   0.688   0.710   0.731   0.787   0.851   0.835   0.842   0.803   0.751   0.789   0.783   0.780   0.736   0.730   0.687   0.716   0.753   0.728   0.744   0.739   0.751   0.766   0.822   0.870   0.855   0.830   0.794   0.742   0.700   0.751   0.812   0.799   0.793   0.789
    94.00    0.716   0.761   0.788   0.799   0.859   0.838   0.812   0.763   0.702   0.621   0.641   0.621   0.661   0.645   0.635   0.617   0.649   0.630   0.604   0.642   0.604   0.640   0.624   0.623   0.648   0.681   0.729   0.708   0.688   0.715   0.791   0.738   0.729   0.628   0.597   0.649   0.663   0.713   0.755   0.732   0.728   0.752   0.767   0.757   0.732   0.775   0.699   0.659   0.676   0.660   0.616   0.627   0.713   0.711   0.681   0.741   0.744   0.723   0.710   0.704   0.639   0.652   0.656   0.675   0.714   0.762   0.808   0.808   0.772   0.843   0.858   0.746   0.785   0.747   0.739   0.701   0.704   0.717   0.747   0.742   0.705   0.736   0.707   0.688   0.697   0.708   0.723   0.682   0.686   0.692   0.699   0.716   0.737   0.708   0.683   0.685   0.665   0.685   0.726   0.739   0.768   0.739   0.778   0.810   0.788   0.769   0.791   0.856   0.888   0.889   0.923   0.843   0.835   0.812   0.785   0.753   0.704   0.687   0.703   0.719   0.698   0.682   0.706   0.747   0.707   0.754   0.721   0.764   0.782   0.804   0.806   0.744   0.738   0.753   0.771   0.755   0.816   0.776   0.765   0.806   0.761   0.771   0.757   0.811   0.830   0.822   0.823   0.813   0.830   0.817   0.793   0.791   0.798   0.726   0.734   0.715   0.740   0.726   0.731   0.696   0.680   0.704   0.744   0.772   0.838   0.815   0.708   0.724   0.760   0.708   0.723   0.720   0.755   0.732   0.715   0.719   0.766   0.711   0.713   0.693   0.757   0.809   0.851   0.866   0.827   0.805   0.744   0.713   0.739   0.773   0.822   0.764   0.755
    84.70    0.713   0.765   0.765   0.759   0.816   0.838   0.767   0.763   0.702   0.688   0.689   0.676   0.678   0.667   0.638   0.642   0.608   0.606   0.663   0.651   0.597   0.648   0.603   0.636   0.651   0.716   0.772   0.738   0.707   0.716   0.744   0.757   0.711   0.642   0.619   0.658   0.675   0.696   0.742   0.760   0.709   0.688   0.684   0.708   0.695   0.691   0.686   0.632   0.677   0.638   0.618   0.651   0.660   0.708   0.669   0.707   0.700   0.742   0.751   0.712   0.672   0.686   0.689   0.667   0.701   0.757   0.774   0.796   0.795   0.819   0.845   0.791   0.741   0.754   0.727   0.730   0.718   0.749   0.708   0.752   0.724   0.768   0.729   0.740   0.688   0.714   0.729   0.706   0.651   0.690   0.711   0.706   0.735   0.683   0.689   0.700   0.730   0.717   0.720   0.787   0.768   0.760   0.813   0.786   0.788   0.748   0.758   0.839   0.866   0.912   0.880   0.866   0.875   0.826   0.768   0.775   0.735   0.716   0.694   0.732   0.742   0.775   0.759   0.771   0.764   0.724   0.751   0.770   0.765   0.818   0.794   0.802   0.744   0.749   0.743   0.785   0.767   0.760   0.788   0.762   0.810   0.841   0.767   0.792   0.789   0.733   0.751   0.812   0.814   0.832   0.807   0.823   0.789   0.743   0.757   0.705   0.742   0.701   0.687   0.712   0.625   0.668   0.701   0.718   0.776   0.759   0.719   0.723   0.739   0.786   0.726   0.784   0.765   0.736   0.718   0.739   0.770   0.705   0.750   0.691   0.737   0.767   0.795   0.771   0.765   0.775   0.763   0.749   0.777   0.813   0.832   0.818   0.808
    75.40    0.769   0.791   0.735   0.719   0.794   0.760   0.764   0.755   0.712   0.728   0.701   0.678   0.639   0.639   0.596   0.616   0.631   0.619   0.606   0.656   0.595   0.639   0.658   0.639   0.657   0.754   0.809   0.765   0.749   0.729   0.750   0.734   0.719   0.642   0.670   0.685   0.625   0.674   0.715   0.723   0.715   0.693   0.692   0.705   0.705   0.682   0.659   0.624   0.628   0.616   0.569   0.608   0.672   0.690   0.710   0.687   0.686   0.734   0.743   0.726   0.704   0.751   0.767   0.725   0.750   0.787   0.741   0.801   0.821   0.809   0.792   0.824   0.792   0.758   0.710   0.670   0.698   0.715   0.665   0.685   0.751   0.751   0.751   0.719   0.725   0.716   0.677   0.674   0.665   0.652   0.670   0.648   0.679   0.716   0.716   0.680   0.720   0.709   0.727   0.757   0.751   0.773   0.776   0.759   0.764   0.774   0.809   0.864   0.827   0.874   0.900   0.847   0.843   0.808   0.783   0.740   0.731   0.690   0.666   0.740   0.757   0.751   0.734   0.798   0.799   0.810   0.760   0.766   0.789   0.794   0.837   0.796   0.726   0.746   0.769   0.717   0.708   0.763   0.773   0.755   0.781   0.816   0.806   0.820   0.808   0.763   0.762   0.802   0.807   0.814   0.837   0.820   0.786   0.694   0.707   0.742   0.706   0.743   0.689   0.653   0.666   0.690   0.739   0.719   0.744   0.714   0.730   0.725   0.685   0.746   0.738   0.744   0.737   0.718   0.782   0.754   0.743   0.733   0.670   0.718   0.663   0.707   0.757   0.756   0.774   0.768   0.764   0.814   0.767   0.800   0.789   0.797   0.770
    66.10    0.777   0.798   0.803   0.755   0.788   0.820   0.785   0.744   0.714   0.727   0.734   0.641   0.619   0.624   0.648   0.633   0.620   0.608   0.658   0.660   0.615   0.685   0.632   0.690   0.714   0.784   0.795   0.795   0.741   0.707   0.696   0.711   0.718   0.697   0.629   0.640   0.676   0.679   0.713   0.733   0.734   0.687   0.690   0.684   0.661   0.654   0.598   0.667   0.672   0.634   0.607   0.655   0.643   0.707   0.688   0.703   0.752   0.812   0.872   0.769   0.735   0.743   0.763   0.806   0.832   0.777   0.771   0.824   0.829   0.778   0.773   0.791   0.764   0.770   0.771   0.724   0.717   0.743   0.680   0.672   0.712   0.768   0.769   0.723   0.725   0.686   0.696   0.720   0.693   0.680   0.678   0.622   0.679   0.706   0.711   0.697   0.728   0.738   0.777   0.746   0.742   0.733   0.758   0.741   0.764   0.809   0.800   0.837   0.822   0.865   0.926   0.849   0.838   0.818   0.854   0.770   0.708   0.731   0.723   0.730   0.776   0.739   0.769   0.782   0.810   0.842   0.819   0.767   0.797   0.814   0.804   0.769   0.678   0.735   0.729   0.727   0.732   0.813   0.804   0.844   0.861   0.825   0.831   0.819   0.824   0.747   0.783   0.803   0.787   0.874   0.832   0.801   0.812   0.771   0.774   0.765   0.738   0.736   0.703   0.669   0.674   0.713   0.711   0.712   0.738   0.676   0.700   0.760   0.723   0.770   0.692   0.699   0.782   0.786   0.778   0.812   0.761   0.710   0.645   0.651   0.686   0.691   0.712   0.761   0.767   0.777   0.755   0.761   0.789   0.779   0.750   0.766   0.769
    56.80    0.745   0.753   0.771   0.762   0.767   0.796   0.744   0.706   0.724   0.704   0.704   0.660   0.633   0.600   0.583   0.571   0.618   0.632   0.662   0.629   0.646   0.655   0.638   0.741   0.801   0.740   0.776   0.753   0.703   0.692   0.675   0.646   0.698   0.661   0.662   0.679   0.672   0.680   0.696   0.711   0.670   0.643   0.724   0.679   0.662   0.662   0.640   0.679   0.679   0.649   0.629   0.612   0.667   0.688   0.689   0.746   0.769   0.775   0.872   0.869   0.780   0.780   0.754   0.824   0.838   0.759   0.779   0.772   0.747   0.733   0.744   0.749   0.757   0.755   0.733   0.735   0.740   0.739   0.737   0.764   0.733   0.756   0.710   0.710   0.662   0.684   0.673   0.700   0.722   0.720   0.699   0.635   0.726   0.720   0.736   0.722   0.751   0.751   0.746   0.751   0.732   0.736   0.750   0.734   0.811   0.828   0.874   0.855   0.802   0.865   0.890   0.866   0.780   0.795   0.834   0.796   0.720   0.715   0.737   0.774   0.767   0.750   0.735   0.765   0.841   0.848   0.820   0.813   0.821   0.765   0.779   0.761   0.696   0.670   0.691   0.710   0.715   0.802   0.849   0.841   0.838   0.831   0.847   0.847   0.863   0.842   0.812   0.816   0.872   0.862   0.842   0.810   0.814   0.780   0.755   0.704   0.709   0.723   0.701   0.705   0.763   0.792   0.768   0.714   0.713   0.689   0.786   0.775   0.684   0.741   0.770   0.746   0.811   0.803   0.848   0.836   0.814   0.764   0.707   0.700   0.625   0.701   0.679   0.681   0.698   0.732   0.766   0.758   0.720   0.736   0.724   0.729   0.800
    47.50    0.789   0.731   0.732   0.705   0.749   0.752   0.699   0.640   0.664   0.666   0.694   0.685   0.686   0.615   0.598   0.548   0.607   0.631   0.629   0.559   0.602   0.641   0.707   0.759   0.750   0.769   0.739   0.774   0.736   0.667   0.629   0.676   0.671   0.654   0.671   0.668   0.622   0.680   0.737   0.708   0.658   0.628   0.692   0.716   0.667   0.707   0.696   0.736   0.717   0.678   0.688   0.714   0.661   0.680   0.712   0.725   0.756   0.834   0.872   0.832   0.820   0.842   0.830   0.869   0.811   0.770   0.725   0.761   0.700   0.698   0.697   0.712   0.730   0.711   0.721   0.697   0.710   0.706   0.724   0.735   0.747   0.762   0.756   0.725   0.699   0.672   0.683   0.703   0.727   0.729   0.742   0.716   0.740   0.731   0.695   0.701   0.741   0.719   0.742   0.733   0.736   0.749   0.775   0.772   0.823   0.830   0.885   0.879   0.857   0.787   0.816   0.850   0.818   0.762   0.801   0.783   0.716   0.715   0.690   0.736   0.738   0.754   0.736   0.741   0.778   0.830   0.855   0.791   0.819   0.764   0.706   0.738   0.660   0.710   0.715   0.732   0.738   0.802   0.790   0.811   0.842   0.871   0.858   0.852   0.809   0.803   0.807   0.775   0.846   0.839   0.811   0.819   0.800   0.736   0.712   0.681   0.698   0.781   0.762   0.760   0.788   0.779   0.790   0.776   0.776   0.747   0.797   0.785   0.721   0.773   0.824   0.831   0.788   0.861   0.885   0.838   0.791   0.773   0.740   0.671   0.640   0.698   0.736   0.739   0.785   0.721   0.761   0.753   0.739   0.753   0.738   0.726   0.758
    38.20    0.739   0.716   0.692   0.695   0.700   0.662   0.620   0.669   0.683   0.661   0.673   0.697   0.695   0.614   0.585   0.591   0.627   0.577   0.574   0.548   0.586   0.650   0.710   0.740   0.775   0.801   0.720   0.689   0.703   0.698   0.651   0.657   0.706   0.683   0.685   0.683   0.667   0.689   0.745   0.743   0.727   0.701   0.657   0.671   0.695   0.666   0.710   0.709   0.747   0.760   0.783   0.724   0.695   0.684   0.687   0.703   0.794   0.832   0.853   0.864   0.825   0.817   0.865   0.862   0.812   0.790   0.782   0.803   0.745   0.744   0.732   0.696   0.734   0.748   0.718   0.763   0.728   0.754   0.719   0.718   0.692   0.717   0.722   0.712   0.652   0.683   0.678   0.742   0.748   0.779   0.767   0.729   0.696   0.732   0.715   0.698   0.686   0.676   0.711   0.704   0.695   0.705   0.743   0.772   0.813   0.813   0.834   0.818   0.804   0.817   0.755   0.791   0.799   0.768   0.753   0.709   0.719   0.677   0.661   0.693   0.729   0.783   0.827   0.833   0.786   0.835   0.902   0.797   0.824   0.810   0.770   0.731   0.707   0.684   0.698   0.705   0.780   0.747   0.798   0.780   0.773   0.830   0.807   0.822   0.801   0.788   0.813   0.839   0.831   0.814   0.782   0.799   0.763   0.755   0.712   0.661   0.751   0.835   0.808   0.786   0.820   0.806   0.781   0.760   0.780   0.799   0.832   0.851   0.802   0.809   0.809   0.824   0.787   0.852   0.894   0.866   0.814   0.768   0.676   0.671   0.649   0.734   0.734   0.750   0.801   0.766   0.743   0.739   0.708   0.739   0.726   0.718   0.726
    28.90    0.647   0.659   0.729   0.707   0.729   0.639   0.663   0.695   0.720   0.670   0.684   0.688   0.637   0.608   0.622   0.583   0.587   0.520   0.557   0.575   0.627   0.655   0.723   0.727   0.737   0.768   0.746   0.801   0.738   0.758   0.718   0.719   0.718   0.710   0.728   0.675   0.696   0.695   0.742   0.733   0.713   0.631   0.644   0.687   0.694   0.673   0.716   0.703   0.709   0.778   0.778   0.731   0.739   0.772   0.712   0.739   0.786   0.833   0.826   0.815   0.819   0.851   0.859   0.811   0.828   0.743   0.729   0.800   0.745   0.705   0.694   0.732   0.735   0.775   0.767   0.766   0.720   0.716   0.677   0.707   0.649   0.647   0.646   0.724   0.733   0.759   0.756   0.759   0.752   0.786   0.786   0.768   0.700   0.770   0.710   0.703   0.687   0.644   0.639   0.716   0.741   0.732   0.769   0.751   0.769   0.766   0.815   0.862   0.840   0.801   0.735   0.770   0.761   0.756   0.766   0.735   0.748   0.774   0.701   0.688   0.725   0.767   0.840   0.834   0.854   0.840   0.860   0.800   0.827   0.762   0.794   0.737   0.719   0.752   0.750   0.746   0.747   0.732   0.797   0.754   0.763   0.766   0.768   0.792   0.811   0.791   0.809   0.849   0.867   0.820   0.798   0.758   0.796   0.733   0.735   0.713   0.733   0.788   0.778   0.802   0.791   0.795   0.814   0.766   0.821   0.859   0.872   0.871   0.873   0.825   0.780   0.781   0.787   0.827   0.841   0.837   0.798   0.765   0.701   0.690   0.675   0.733   0.727   0.688   0.729   0.756   0.825   0.778   0.712   0.691   0.730   0.747   0.759
    19.60    0.668   0.639   0.677   0.670   0.727   0.691   0.679   0.671   0.706   0.707   0.702   0.658   0.626   0.600   0.596   0.583   0.561   0.552   0.569   0.586   0.603   0.627   0.694   0.716   0.659   0.745   0.771   0.815   0.766   0.743   0.730   0.708   0.741   0.777   0.722   0.703   0.702   0.710   0.712   0.688   0.714   0.644   0.690   0.748   0.733   0.737   0.759   0.727   0.754   0.770   0.780   0.781   0.765   0.726   0.755   0.780   0.799   0.803   0.783   0.760   0.780   0.837   0.827   0.832   0.819   0.768   0.751   0.745   0.755   0.765   0.723   0.754   0.778   0.801   0.778   0.775   0.771   0.737   0.695   0.643   0.674   0.663   0.655   0.749   0.802   0.770   0.757   0.762   0.770   0.770   0.761   0.750   0.792   0.798   0.762   0.679   0.630   0.638   0.643   0.728   0.756   0.735   0.768   0.745   0.731   0.726   0.786   0.799   0.812   0.748   0.731   0.711   0.771   0.749   0.761   0.785   0.788   0.740   0.717   0.708   0.759   0.758   0.789   0.848   0.823   0.822   0.792   0.812   0.808   0.743   0.798   0.741   0.725   0.745   0.747   0.684   0.686   0.775   0.802   0.739   0.784   0.790   0.763   0.825   0.832   0.823   0.821   0.801   0.820   0.829   0.762   0.755   0.798   0.737   0.684   0.659   0.748   0.820   0.847   0.832   0.786   0.817   0.859   0.817   0.838   0.868   0.902   0.897   0.842   0.800   0.738   0.727   0.736   0.792   0.821   0.776   0.752   0.683   0.748   0.719   0.698   0.683   0.685   0.648   0.706   0.736   0.765   0.779   0.736   0.720   0.731   0.712   0.765
    10.30    0.662   0.669   0.699   0.685   0.672   0.668   0.688   0.734   0.712   0.659   0.694   0.643   0.646   0.632   0.622   0.579   0.576   0.627   0.612   0.664   0.651   0.662   0.698   0.700   0.688   0.708   0.683   0.771   0.783   0.768   0.745   0.788   0.754   0.729   0.749   0.691   0.726   0.703   0.694   0.706   0.681   0.683   0.721   0.748   0.717   0.726   0.725   0.695   0.784   0.801   0.771   0.765   0.742   0.752   0.795   0.791   0.771   0.804   0.766   0.783   0.837   0.786   0.846   0.838   0.827   0.840   0.772   0.787   0.733   0.764   0.773   0.787   0.792   0.800   0.784   0.786   0.781   0.736   0.714   0.734   0.696   0.779   0.768   0.780   0.790   0.790   0.795   0.801   0.793   0.734   0.801   0.781   0.790   0.782   0.734   0.693   0.640   0.676   0.674   0.715   0.725   0.721   0.734   0.688   0.699   0.750   0.814   0.805   0.795   0.728   0.706   0.685   0.715   0.747   0.725   0.802   0.835   0.763   0.745   0.706   0.739   0.783   0.728   0.816   0.797   0.825   0.768   0.734   0.742   0.701   0.775   0.753   0.754   0.728   0.698   0.680   0.693   0.737   0.768   0.743   0.734   0.768   0.788   0.836   0.868   0.831   0.843   0.819   0.816   0.831   0.770   0.809   0.746   0.743   0.713   0.733   0.722   0.808   0.853   0.800   0.796   0.835   0.831   0.871   0.898   0.823   0.854   0.874   0.798   0.779   0.771   0.787   0.756   0.764   0.752   0.730   0.724   0.731   0.680   0.684   0.696   0.682   0.682   0.674   0.722   0.731   0.753   0.777   0.782   0.749   0.707   0.756   0.780
     1.00    0.716   0.667   0.695   0.698   0.695   0.698   0.670   0.721   0.671   0.674   0.647   0.670   0.684   0.639   0.613   0.565   0.617   0.674   0.696   0.700   0.678   0.664   0.690   0.681   0.654   0.697   0.704   0.754   0.788   0.779   0.768   0.812   0.770   0.757   0.716   0.707   0.680   0.679   0.668   0.656   0.670   0.691   0.703   0.707   0.712   0.729   0.717   0.720   0.756   0.773   0.769   0.772   0.696   0.726   0.811   0.817   0.794   0.853   0.768   0.787   0.825   0.845   0.786   0.840   0.794   0.818   0.814   0.807   0.800   0.767   0.781   0.747   0.753   0.737   0.711   0.770   0.803   0.816   0.758   0.756   0.696   0.772   0.781   0.795   0.741   0.768   0.769   0.790   0.803   0.726   0.778   0.782   0.802   0.773   0.735   0.689   0.683   0.730   0.736   0.761   0.803   0.777   0.728   0.687   0.673   0.724   0.744   0.804   0.776   0.720   0.666   0.728   0.686   0.716   0.721   0.789   0.834   0.779   0.768   0.734   0.792   0.768   0.757   0.777   0.810   0.835   0.777   0.719   0.750   0.735   0.751   0.820   0.775   0.714   0.710   0.662   0.679   0.718   0.738   0.729   0.742   0.732   0.766   0.799   0.777   0.830   0.793   0.803   0.797   0.814   0.847   0.832   0.754   0.783   0.746   0.743   0.788   0.808   0.823   0.777   0.788   0.793   0.780   0.828   0.868   0.823   0.847   0.822   0.845   0.807   0.788   0.755   0.770   0.789   0.770   0.746   0.719   0.686   0.707   0.681   0.651   0.670   0.681   0.653   0.691   0.729   0.763   0.771   0.739   0.716   0.753   0.706   0.769

   Height   Standard deviation at grid points for the v component:
   354.40    0.577   0.590   0.608   0.620   0.600   0.563   0.558   0.534   0.536   0.538   0.556   0.588   0.596   0.563   0.582   0.565   0.571   0.560   0.579   0.560   0.579   0.541   0.551   0.556   0.567   0.557   0.582   0.578   0.586   0.574   0.563   0.508   0.492   0.534   0.565   0.566   0.572   0.536   0.544   0.549   0.541   0.547   0.573   0.581   0.574   0.598   0.602   0.583   0.583   0.579   0.569   0.587   0.592   0.583   0.597   0.573   0.574   0.551   0.592   0.585   0.562   0.554   0.567   0.566   0.580   0.603   0.614   0.593   0.614   0.603   0.586   0.596   0.595   0.604   0.589   0.565   0.565   0.559   0.546   0.537   0.561   0.540   0.533   0.537   0.565   0.573   0.561   0.539   0.543   0.547   0.502   0.515   0.529   0.506   0.546   0.557   0.519   0.529   0.541   0.561   0.540   0.538   0.543   0.546   0.568   0.545   0.551   0.552   0.606   0.622   0.592   0.604   0.595   0.603   0.591   0.595   0.614   0.584   0.605   0.618   0.563   0.587   0.572   0.573   0.545   0.536   0.549   0.547   0.537   0.547   0.560   0.600   0.575   0.566   0.544   0.536   0.550   0.584   0.606   0.640   0.626   0.593   0.584   0.601   0.601   0.589   0.602   0.625   0.605   0.595   0.593   0.643   0.633   0.598   0.583   0.560   0.558   0.563   0.572   0.593   0.569   0.598   0.569   0.589   0.610   0.617   0.618   0.630   0.608   0.631   0.592   0.592   0.599   0.604   0.610   0.612   0.653   0.652   0.660   0.650   0.628   0.648   0.608   0.651   0.639   0.658   0.652   0.661   0.633   0.636   0.640   0.633   0.597
   345.10    0.601   0.598   0.594   0.574   0.574   0.534   0.532   0.536   0.541   0.547   0.571   0.565   0.561   0.544   0.549   0.562   0.574   0.539   0.539   0.554   0.558   0.551   0.547   0.530   0.599   0.590   0.560   0.552   0.536   0.564   0.575   0.560   0.560   0.555   0.558   0.580   0.570   0.538   0.526   0.544   0.559   0.596   0.606   0.611   0.609   0.585   0.597   0.589   0.594   0.601   0.584   0.608   0.617   0.573   0.583   0.592   0.557   0.541   0.540   0.553   0.551   0.542   0.592   0.584   0.603   0.599   0.626   0.623   0.601   0.592   0.577   0.595   0.593   0.585   0.562   0.592   0.601   0.591   0.542   0.557   0.541   0.523   0.526   0.553   0.573   0.567   0.563   0.520   0.533   0.518   0.504   0.489   0.511   0.531   0.517   0.521   0.535   0.513   0.535   0.535   0.536   0.521   0.539   0.535   0.565   0.564   0.576   0.580   0.579   0.610   0.606   0.605   0.588   0.599   0.597   0.572   0.611   0.581   0.593   0.595   0.619   0.593   0.584   0.542   0.555   0.563   0.574   0.582   0.566   0.539   0.537   0.571   0.588   0.579   0.592   0.558   0.548   0.600   0.619   0.599   0.598   0.615   0.593   0.594   0.583   0.581   0.592   0.604   0.634   0.593   0.610   0.634   0.623   0.577   0.581   0.587   0.621   0.604   0.615   0.596   0.607   0.605   0.592   0.568   0.594   0.619   0.626   0.653   0.646   0.645   0.641   0.600   0.595   0.616   0.585   0.631   0.651   0.642   0.631   0.639   0.626   0.598   0.603   0.596   0.638   0.671   0.640   0.630   0.623   0.610   0.623   0.611   0.584
   335.80    0.586   0.591   0.599   0.609   0.580   0.534   0.522   0.530   0.524   0.546   0.552   0.546   0.559   0.599   0.546   0.526   0.542   0.570   0.545   0.552   0.557   0.559   0.558   0.581   0.590   0.575   0.559   0.506   0.546   0.578   0.566   0.561   0.555   0.581   0.584   0.588   0.570   0.550   0.529   0.574   0.614   0.672   0.641   0.658   0.626   0.588   0.579   0.577   0.577   0.605   0.575   0.616   0.632   0.613   0.609   0.594   0.560   0.560   0.526   0.555   0.571   0.586   0.569   0.601   0.606   0.606   0.597   0.607   0.614   0.584   0.571   0.572   0.567   0.559   0.583   0.571   0.589   0.592   0.542   0.544   0.569   0.542   0.540   0.560   0.564   0.543   0.565   0.537   0.521   0.499   0.505   0.501   0.519   0.527   0.502   0.511   0.523   0.532   0.556   0.559   0.524   0.538   0.544   0.545   0.529   0.559   0.548   0.578   0.581   0.600   0.591   0.627   0.621   0.600   0.601   0.564   0.572   0.562   0.535   0.572   0.589   0.563   0.552   0.556   0.562   0.575   0.584   0.592   0.548   0.551   0.550   0.571   0.566   0.588   0.587   0.596   0.567   0.598   0.599   0.601   0.601   0.608   0.614   0.593   0.617   0.629   0.574   0.588   0.589   0.602   0.617   0.615   0.598   0.581   0.567   0.593   0.602   0.615   0.626   0.559   0.591   0.623   0.582   0.547   0.569   0.597   0.608   0.621   0.611   0.639   0.633   0.617   0.616   0.579   0.607   0.644   0.631   0.635   0.644   0.621   0.589   0.595   0.594   0.611   0.627   0.642   0.628   0.600   0.592   0.599   0.612   0.626   0.578
   326.50    0.605   0.610   0.627   0.587   0.585   0.562   0.545   0.519   0.530   0.518   0.521   0.555   0.576   0.601   0.584   0.554   0.553   0.549   0.570   0.546   0.554   0.558   0.577   0.591   0.570   0.547   0.558   0.553   0.573   0.545   0.543   0.552   0.557   0.567   0.564   0.595   0.583   0.568   0.590   0.585   0.601   0.637   0.648   0.624   0.592   0.589   0.578   0.604   0.608   0.596   0.580   0.594   0.605   0.631   0.597   0.536   0.552   0.582   0.573   0.543   0.542   0.579   0.584   0.602   0.602   0.577   0.572   0.594   0.580   0.546   0.533   0.542   0.540   0.561   0.594   0.567   0.582   0.580   0.575   0.563   0.570   0.584   0.567   0.581   0.567   0.550   0.581   0.541   0.544   0.535   0.517   0.509   0.541   0.508   0.540   0.553   0.538   0.548   0.544   0.581   0.552   0.535   0.550   0.536   0.548   0.553   0.548   0.577   0.597   0.583   0.569   0.597   0.604   0.572   0.568   0.527   0.573   0.562   0.568   0.583   0.605   0.546   0.555   0.554   0.558   0.569   0.569   0.546   0.529   0.543   0.531   0.556   0.554   0.576   0.588   0.608   0.599   0.609   0.628   0.615   0.609   0.621   0.646   0.605   0.615   0.584   0.603   0.612   0.605   0.635   0.604   0.603   0.575   0.591   0.582   0.586   0.573   0.575   0.553   0.582   0.599   0.607   0.591   0.563   0.575   0.615   0.630   0.620   0.625   0.633   0.644   0.612   0.576   0.565   0.588   0.619   0.636   0.640   0.627   0.657   0.625   0.621   0.599   0.645   0.639   0.629   0.590   0.580   0.586   0.613   0.618   0.627   0.604
[...]
   103.30    0.354   0.347   0.356   0.356   0.369   0.357   0.358   0.357   0.349   0.361   0.361   0.358   0.356   0.363   0.361   0.348   0.347   0.347   0.335   0.337   0.335   0.344   0.353   0.354   0.347   0.354   0.366   0.372   0.364   0.365   0.369   0.352   0.351   0.349   0.349   0.371   0.355   0.342   0.345   0.351   0.356   0.353   0.352   0.350   0.345   0.356   0.358   0.366   0.362   0.349   0.344   0.349   0.327   0.353   0.364   0.351   0.339   0.349   0.350   0.357   0.353   0.356   0.369   0.358   0.363   0.359   0.359   0.347   0.355   0.361   0.353   0.348   0.336   0.345   0.349   0.351   0.342   0.341   0.354   0.359   0.359   0.356   0.360   0.361   0.354   0.365   0.358   0.368   0.356   0.348   0.355   0.365   0.366   0.367   0.381   0.380   0.367   0.368   0.366   0.367   0.351   0.358   0.362   0.375   0.376   0.352   0.355   0.362   0.364   0.367   0.364   0.346   0.353   0.338   0.341   0.351   0.339   0.347   0.338   0.340   0.336   0.336   0.346   0.354   0.345   0.354   0.362   0.360   0.350   0.343   0.357   0.353   0.351   0.334   0.341   0.345   0.353   0.353   0.351   0.351   0.340   0.351   0.341   0.358   0.349   0.361   0.367   0.347   0.359   0.371   0.365   0.359   0.361   0.361   0.359   0.364   0.362   0.368   0.357   0.354   0.347   0.359   0.361   0.365   0.354   0.369   0.376   0.376   0.371   0.359   0.357   0.364   0.359   0.346   0.334   0.338   0.342   0.339   0.349   0.353   0.343   0.338   0.338   0.358   0.353   0.359   0.367   0.357   0.354   0.369   0.363   0.362   0.352
    94.00    0.349   0.346   0.351   0.366   0.372   0.360   0.347   0.346   0.340   0.346   0.358   0.355   0.346   0.359   0.356   0.359   0.353   0.356   0.344   0.339   0.344   0.348   0.357   0.356   0.357   0.349   0.358   0.369   0.362   0.345   0.346   0.351   0.350   0.343   0.343   0.365   0.359   0.355   0.342   0.346   0.351   0.357   0.349   0.359   0.356   0.357   0.349   0.350   0.355   0.353   0.339   0.344   0.342   0.347   0.357   0.349   0.361   0.347   0.363   0.355   0.349   0.372   0.367   0.363   0.353   0.344   0.353   0.347   0.356   0.361   0.349   0.352   0.345   0.349   0.350   0.345   0.343   0.347   0.356   0.346   0.369   0.363   0.352   0.366   0.356   0.356   0.362   0.365   0.360   0.361   0.365   0.364   0.367   0.382   0.372   0.362   0.360   0.374   0.366   0.369   0.373   0.369   0.358   0.373   0.368   0.361   0.374   0.372   0.371   0.363   0.354   0.339   0.354   0.348   0.354   0.361   0.354   0.352   0.353   0.342   0.348   0.346   0.337   0.347   0.358   0.348   0.353   0.349   0.357   0.345   0.357   0.362   0.351   0.359   0.345   0.352   0.349   0.348   0.361   0.349   0.347   0.355   0.355   0.369   0.366   0.363   0.367   0.369   0.350   0.364   0.376   0.367   0.363   0.350   0.361   0.363   0.354   0.364   0.360   0.366   0.353   0.356   0.345   0.351   0.357   0.350   0.370   0.377   0.373   0.362   0.358   0.363   0.360   0.337   0.357   0.335   0.338   0.338   0.345   0.353   0.362   0.349   0.342   0.350   0.347   0.348   0.347   0.360   0.363   0.369   0.367   0.361   0.363
    84.70    0.355   0.346   0.365   0.383   0.366   0.366   0.365   0.363   0.363   0.362   0.350   0.346   0.345   0.359   0.351   0.359   0.356   0.352   0.355   0.341   0.343   0.359   0.351   0.365   0.358   0.353   0.359   0.370   0.369   0.367   0.352   0.342   0.332   0.333   0.346   0.351   0.348   0.337   0.340   0.345   0.344   0.357   0.349   0.352   0.352   0.358   0.357   0.350   0.346   0.349   0.357   0.361   0.360   0.362   0.362   0.361   0.354   0.348   0.356   0.359   0.365   0.367   0.363   0.358   0.351   0.351   0.359   0.361   0.349   0.359   0.361   0.352   0.347   0.364   0.354   0.353   0.355   0.351   0.351   0.363   0.365   0.359   0.376   0.357   0.365   0.361   0.363   0.363   0.352   0.362   0.366   0.364   0.364   0.373   0.371   0.371   0.366   0.368   0.372   0.375   0.371   0.365   0.359   0.360   0.354   0.354   0.355   0.352   0.359   0.369   0.353   0.347   0.348   0.357   0.370   0.368   0.355   0.352   0.346   0.341   0.356   0.348   0.346   0.341   0.351   0.356   0.347   0.356   0.359   0.349   0.357   0.357   0.357   0.347   0.356   0.343   0.354   0.362   0.352   0.347   0.349   0.364   0.361   0.374   0.361   0.360   0.365   0.372   0.371   0.366   0.363   0.362   0.360   0.345   0.351   0.365   0.365   0.363   0.363   0.360   0.362   0.353   0.355   0.348   0.354   0.350   0.366   0.364   0.369   0.359   0.368   0.360   0.353   0.345   0.348   0.344   0.339   0.349   0.351   0.352   0.357   0.352   0.342   0.348   0.338   0.349   0.359   0.353   0.361   0.367   0.367   0.369   0.377
    75.40    0.351   0.360   0.370   0.367   0.358   0.359   0.354   0.364   0.367   0.363   0.346   0.347   0.347   0.352   0.349   0.353   0.371   0.344   0.355   0.346   0.353   0.353   0.359   0.370   0.364   0.366   0.363   0.349   0.354   0.354   0.359   0.344   0.347   0.348   0.352   0.350   0.348   0.343   0.335   0.352   0.354   0.349   0.353   0.371   0.349   0.352   0.355   0.340   0.361   0.354   0.355   0.358   0.365   0.357   0.352   0.363   0.358   0.356   0.352   0.365   0.365   0.371   0.359   0.362   0.368   0.361   0.351   0.356   0.359   0.343   0.351   0.347   0.347   0.355   0.347   0.353   0.360   0.348   0.362   0.355   0.362   0.364   0.363   0.357   0.355   0.355   0.354   0.350   0.353   0.360   0.371   0.362   0.373   0.376   0.376   0.378   0.373   0.384   0.364   0.378   0.383   0.367   0.343   0.342   0.360   0.344   0.357   0.359   0.359   0.363   0.355   0.352   0.343   0.359   0.363   0.363   0.358   0.346   0.335   0.349   0.343   0.356   0.345   0.339   0.360   0.361   0.356   0.352   0.371   0.367   0.355   0.364   0.352   0.340   0.343   0.347   0.358   0.354   0.363   0.351   0.340   0.354   0.362   0.366   0.357   0.368   0.354   0.359   0.360   0.365   0.367   0.354   0.362   0.340   0.339   0.360   0.362   0.354   0.351   0.350   0.351   0.350   0.363   0.354   0.346   0.356   0.355   0.357   0.363   0.362   0.357   0.364   0.350   0.341   0.339   0.344   0.345   0.356   0.361   0.348   0.357   0.341   0.342   0.348   0.360   0.355   0.355   0.359   0.358   0.360   0.375   0.366   0.365
    66.10    0.363   0.357   0.369   0.359   0.363   0.357   0.367   0.371   0.365   0.349   0.345   0.363   0.349   0.344   0.348   0.356   0.357   0.359   0.355   0.354   0.355   0.359   0.367   0.361   0.358   0.374   0.361   0.362   0.359   0.346   0.352   0.355   0.352   0.351   0.351   0.362   0.360   0.351   0.357   0.355   0.344   0.353   0.348   0.359   0.352   0.349   0.342   0.342   0.354   0.343   0.349   0.372   0.357   0.369   0.357   0.370   0.360   0.359   0.348   0.359   0.367   0.364   0.369   0.384   0.366   0.368   0.361   0.359   0.361   0.344   0.344   0.344   0.353   0.362   0.369   0.373   0.369   0.358   0.372   0.373   0.371   0.365   0.358   0.349   0.361   0.351   0.358   0.353   0.353   0.365   0.373   0.359   0.365   0.375   0.382   0.369   0.366   0.372   0.378   0.386   0.367   0.368   0.344   0.353   0.354   0.353   0.352   0.360   0.370   0.362   0.356   0.351   0.342   0.350   0.366   0.368   0.353   0.358   0.343   0.352   0.337   0.355   0.343   0.349   0.346   0.357   0.339   0.344   0.356   0.362   0.363   0.362   0.360   0.350   0.356   0.359   0.357   0.357   0.353   0.347   0.342   0.362   0.351   0.346   0.349   0.345   0.350   0.353   0.352   0.354   0.357   0.347   0.347   0.339   0.340   0.350   0.343   0.348   0.340   0.343   0.349   0.351   0.363   0.363   0.356   0.359   0.349   0.355   0.359   0.357   0.351   0.359   0.355   0.344   0.342   0.338   0.359   0.365   0.356   0.353   0.355   0.355   0.348   0.346   0.372   0.377   0.362   0.361   0.353   0.352   0.361   0.367   0.373
    56.80    0.362   0.370   0.373   0.359   0.364   0.372   0.366   0.371   0.362   0.356   0.345   0.353   0.354   0.364   0.344   0.352   0.364   0.351   0.346   0.350   0.370   0.367   0.364   0.360   0.363   0.372   0.363   0.372   0.365   0.359   0.352   0.364   0.354   0.344   0.354   0.356   0.351   0.352   0.352   0.361   0.352   0.365   0.350   0.348   0.344   0.344   0.355   0.348   0.356   0.353   0.352   0.369   0.368   0.367   0.355   0.358   0.368   0.371   0.354   0.348   0.352   0.351   0.361   0.379   0.364   0.366   0.351   0.352   0.350   0.361   0.353   0.359   0.366   0.377   0.366   0.365   0.356   0.358   0.361   0.358   0.364   0.351   0.352   0.351   0.347   0.362   0.367   0.363   0.367   0.374   0.371   0.361   0.361   0.368   0.374   0.371   0.362   0.357   0.368   0.369   0.363   0.361   0.361   0.361   0.353   0.349   0.353   0.354   0.369   0.363   0.359   0.360   0.353   0.373   0.369   0.356   0.363   0.356   0.341   0.342   0.339   0.353   0.361   0.359   0.349   0.353   0.350   0.356   0.356   0.356   0.353   0.349   0.361   0.357   0.359   0.372   0.359   0.348   0.338   0.357   0.374   0.364   0.347   0.346   0.358   0.346   0.357   0.354   0.365   0.359   0.360   0.348   0.342   0.343   0.340   0.352   0.336   0.341   0.342   0.351   0.352   0.353   0.346   0.349   0.348   0.354   0.359   0.359   0.357   0.349   0.358   0.346   0.350   0.344   0.345   0.344   0.349   0.364   0.358   0.351   0.353   0.360   0.345   0.351   0.356   0.368   0.364   0.359   0.352   0.360   0.360   0.372   0.370
    47.50    0.363   0.366   0.384   0.372   0.377   0.376   0.358   0.361   0.365   0.367   0.350   0.353   0.352   0.350   0.362   0.363   0.360   0.351   0.344   0.360   0.364   0.365   0.352   0.365   0.363   0.377   0.370   0.362   0.366   0.360   0.358   0.369   0.367   0.351   0.353   0.353   0.354   0.353   0.371   0.359   0.350   0.360   0.354   0.355   0.350   0.349   0.353   0.356   0.349   0.362   0.354   0.365   0.366   0.365   0.343   0.350   0.361   0.354   0.351   0.343   0.360   0.357   0.368   0.358   0.359   0.363   0.366   0.356   0.362   0.360   0.357   0.352   0.352   0.364   0.358   0.351   0.347   0.354   0.351   0.346   0.354   0.350   0.353   0.359   0.351   0.356   0.357   0.358   0.369   0.375   0.359   0.369   0.369   0.362   0.357   0.372   0.369   0.363   0.359   0.351   0.357   0.345   0.351   0.342   0.353   0.344   0.352   0.357   0.369   0.376   0.370   0.365   0.356   0.362   0.347   0.359   0.356   0.360   0.356   0.359   0.355   0.363   0.374   0.363   0.361   0.346   0.362   0.364   0.361   0.363   0.353   0.352   0.359   0.363   0.367   0.375   0.371   0.359   0.349   0.353   0.358   0.353   0.348   0.352   0.358   0.351   0.350   0.354   0.354   0.362   0.360   0.346   0.348   0.355   0.341   0.343   0.345   0.335   0.346   0.346   0.353   0.354   0.351   0.347   0.345   0.347   0.342   0.356   0.344   0.354   0.356   0.348   0.347   0.349   0.346   0.349   0.343   0.353   0.355   0.366   0.358   0.363   0.372   0.358   0.366   0.366   0.366   0.355   0.353   0.361   0.358   0.375   0.365
    38.20    0.356   0.367   0.373   0.367   0.372   0.368   0.363   0.381   0.374   0.365   0.353   0.340   0.359   0.355   0.358   0.366   0.357   0.356   0.349   0.361   0.361   0.352   0.356   0.371   0.362   0.371   0.367   0.358   0.363   0.360   0.365   0.360   0.365   0.356   0.360   0.355   0.352   0.350   0.359   0.371   0.378   0.372   0.371   0.358   0.353   0.353   0.355   0.355   0.349   0.348   0.366   0.370   0.359   0.362   0.348   0.343   0.350   0.350   0.345   0.344   0.349   0.368   0.363   0.365   0.367   0.358   0.364   0.360   0.344   0.353   0.353   0.342   0.346   0.356   0.365   0.366   0.353   0.354   0.346   0.341   0.353   0.362   0.355   0.362   0.353   0.357   0.355   0.360   0.362   0.362   0.357   0.350   0.360   0.365   0.362   0.365   0.377   0.365   0.357   0.351   0.345   0.347   0.351   0.347   0.357   0.363   0.352   0.359   0.349   0.376   0.361   0.357   0.357   0.349   0.341   0.354   0.360   0.362   0.369   0.360   0.361   0.358   0.358   0.353   0.356   0.356   0.365   0.363   0.355   0.344   0.358   0.363   0.366   0.365   0.359   0.359   0.375   0.366   0.351   0.340   0.351   0.355   0.357   0.356   0.351   0.343   0.348   0.356   0.356   0.360   0.355   0.358   0.348   0.355   0.355   0.342   0.341   0.337   0.341   0.353   0.343   0.344   0.355   0.350   0.346   0.348   0.345   0.351   0.347   0.333   0.344   0.344   0.336   0.340   0.343   0.345   0.336   0.343   0.355   0.362   0.376   0.362   0.358   0.362   0.364   0.369   0.368   0.378   0.378   0.358   0.375   0.377   0.377
    28.90    0.357   0.364   0.361   0.357   0.374   0.364   0.371   0.375   0.373   0.366   0.364   0.352   0.360   0.357   0.352   0.361   0.360   0.349   0.356   0.365   0.365   0.364   0.368   0.368   0.370   0.364   0.372   0.370   0.361   0.357   0.362   0.370   0.369   0.372   0.364   0.356   0.348   0.356   0.369   0.372   0.370   0.365   0.379   0.374   0.371   0.353   0.355   0.348   0.356   0.366   0.366   0.355   0.355   0.353   0.354   0.362   0.363   0.366   0.360   0.351   0.361   0.362   0.363   0.368   0.372   0.355   0.359   0.360   0.353   0.347   0.356   0.352   0.355   0.359   0.368   0.351   0.353   0.349   0.347   0.353   0.349   0.367   0.364   0.364   0.346   0.346   0.349   0.357   0.356   0.357   0.359   0.358   0.358   0.370   0.360   0.363   0.370   0.373   0.364   0.344   0.352   0.355   0.362   0.350   0.361   0.363   0.366   0.373   0.367   0.354   0.358   0.351   0.353   0.357   0.335   0.354   0.358   0.366   0.370   0.356   0.358   0.362   0.347   0.357   0.362   0.364   0.358   0.350   0.350   0.349   0.370   0.363   0.372   0.366   0.356   0.362   0.360   0.343   0.333   0.344   0.339   0.352   0.356   0.363   0.357   0.358   0.347   0.352   0.357   0.360   0.361   0.360   0.350   0.356   0.372   0.354   0.360   0.359   0.350   0.360   0.351   0.356   0.353   0.365   0.362   0.342   0.341   0.346   0.342   0.336   0.341   0.346   0.342   0.344   0.347   0.346   0.347   0.351   0.362   0.362   0.364   0.365   0.366   0.354   0.361   0.372   0.376   0.375   0.378   0.367   0.366   0.369   0.377
    19.60    0.362   0.363   0.361   0.359   0.350   0.360   0.372   0.378   0.380   0.368   0.368   0.360   0.356   0.364   0.340   0.360   0.365   0.358   0.351   0.361   0.364   0.363   0.374   0.379   0.368   0.363   0.356   0.369   0.375   0.367   0.370   0.369   0.377   0.378   0.365   0.359   0.347   0.365   0.376   0.373   0.362   0.368   0.375   0.377   0.367   0.348   0.349   0.349   0.348   0.362   0.351   0.362   0.363   0.350   0.360   0.360   0.371   0.377   0.359   0.360   0.366   0.361   0.365   0.361   0.366   0.369   0.359   0.362   0.353   0.354   0.359   0.361   0.352   0.367   0.361   0.361   0.361   0.351   0.356   0.359   0.354   0.372   0.371   0.355   0.360   0.354   0.356   0.358   0.356   0.352   0.348   0.355   0.355   0.365   0.357   0.370   0.362   0.360   0.344   0.354   0.353   0.354   0.360   0.366   0.356   0.364   0.368   0.371   0.364   0.357   0.344   0.351   0.363   0.353   0.353   0.349   0.360   0.357   0.363   0.364   0.367   0.366   0.367   0.360   0.355   0.358   0.364   0.363   0.369   0.353   0.365   0.355   0.365   0.370   0.357   0.351   0.354   0.346   0.337   0.347   0.346   0.368   0.355   0.360   0.362   0.357   0.347   0.361   0.358   0.354   0.347   0.350   0.353   0.358   0.349   0.348   0.358   0.351   0.362   0.358   0.359   0.353   0.367   0.360   0.349   0.342   0.348   0.346   0.337   0.336   0.346   0.344   0.340   0.339   0.351   0.347   0.351   0.361   0.361   0.361   0.361   0.360   0.353   0.364   0.362   0.373   0.360   0.361   0.369   0.360   0.356   0.365   0.364
    10.30    0.343   0.364   0.366   0.365   0.369   0.364   0.366   0.382   0.385   0.379   0.362   0.359   0.357   0.362   0.363   0.346   0.355   0.345   0.350   0.369   0.362   0.357   0.358   0.365   0.373   0.374   0.364   0.369   0.379   0.371   0.364   0.365   0.371   0.365   0.367   0.362   0.360   0.373   0.368   0.371   0.378   0.372   0.376   0.370   0.362   0.367   0.354   0.355   0.351   0.354   0.363   0.359   0.354   0.353   0.355   0.369   0.369   0.357   0.371   0.361   0.366   0.363   0.353   0.364   0.385   0.368   0.350   0.359   0.358   0.351   0.353   0.344   0.347   0.354   0.354   0.350   0.349   0.349   0.351   0.359   0.362   0.370   0.369   0.360   0.374   0.362   0.354   0.348   0.356   0.347   0.344   0.356   0.369   0.376   0.374   0.374   0.366   0.367   0.359   0.356   0.344   0.357   0.362   0.357   0.356   0.357   0.377   0.383   0.376   0.370   0.366   0.354   0.348   0.355   0.345   0.352   0.355   0.344   0.348   0.353   0.360   0.377   0.376   0.367   0.363   0.363   0.374   0.363   0.359   0.360   0.361   0.365   0.364   0.351   0.352   0.355   0.353   0.355   0.353   0.352   0.366   0.350   0.353   0.357   0.348   0.356   0.362   0.351   0.354   0.346   0.344   0.350   0.342   0.356   0.367   0.348   0.353   0.352   0.352   0.365   0.351   0.357   0.365   0.362   0.359   0.362   0.343   0.341   0.343   0.351   0.356   0.346   0.343   0.342   0.357   0.348   0.363   0.355   0.356   0.355   0.347   0.348   0.358   0.357   0.358   0.365   0.368   0.365   0.368   0.369   0.362   0.363   0.361
     1.00    0.356   0.360   0.368   0.361   0.356   0.363   0.368   0.373   0.375   0.372   0.378   0.362   0.358   0.363   0.354   0.349   0.355   0.360   0.370   0.370   0.358   0.355   0.356   0.369   0.381   0.369   0.366   0.375   0.374   0.384   0.366   0.364   0.359   0.355   0.367   0.371   0.363   0.368   0.369   0.367   0.381   0.368   0.373   0.367   0.366   0.372   0.362   0.354   0.352   0.354   0.355   0.360   0.359   0.357   0.374   0.373   0.371   0.368   0.377   0.365   0.361   0.360   0.356   0.366   0.374   0.364   0.357   0.353   0.349   0.346   0.350   0.346   0.348   0.349   0.356   0.350   0.356   0.361   0.345   0.353   0.357   0.347   0.365   0.366   0.371   0.362   0.356   0.342   0.337   0.354   0.346   0.359   0.357   0.365   0.365   0.374   0.351   0.346   0.359   0.353   0.342   0.347   0.353   0.365   0.346   0.359   0.377   0.378   0.372   0.363   0.380   0.358   0.356   0.359   0.358   0.356   0.355   0.360   0.356   0.365   0.356   0.364   0.376   0.368   0.370   0.358   0.367   0.355   0.360   0.369   0.351   0.360   0.357   0.364   0.349   0.357   0.344   0.349   0.351   0.343   0.365   0.357   0.357   0.354   0.347   0.352   0.359   0.357   0.349   0.346   0.352   0.349   0.341   0.353   0.359   0.347   0.337   0.348   0.344   0.349   0.342   0.354   0.351   0.355   0.354   0.360   0.338   0.342   0.348   0.352   0.361   0.353   0.342   0.345   0.357   0.348   0.353   0.350   0.344   0.349   0.341   0.351   0.351   0.349   0.354   0.356   0.373   0.369   0.363   0.362   0.364   0.363   0.367

   Mean standard deviation across all grid points:
      u component:    0.733 m/s
      v component:    0.578 m/s
      w component:    0.356 m/s


U-component (X) statistics from the interpolated hub point:

   Mean =   9.7063 m/s
   TI   =   7.2015 %


Processing complete.  2.11407E+05 CPU seconds used.
