
This summary file was generated by TurbSim (from OpenFAST-v3.5.3) on 19-Apr-2025 at 19:42:29.


Runtime Options:

 916078875  Random seed #1
    RANLUX  Type of random number generator
         F  Output binary HH turbulence parameters?
         F  Output formatted turbulence parameters?
         F  Output AeroDyn HH files?
         T  Output AeroDyn FF files?
         F  Output BLADED FF files?
         F  Output tower data?
         F  Output HAWC FF files?
         F  Output formatted FF files?
         T  Output coherent turbulence time step file?
 0 -  NONE  IEC turbulence models scaled to exact specified standard deviation


Turbine/Model Specifications:

        39  Vertical grid-point matrix dimension
       193  Horizontal grid-point matrix dimension
     0.250  Time step [seconds]
   900.000  Analysis time [seconds]
   900.000  Usable output time [seconds]
   177.700  Hub height [m]
   353.400  Grid height [m]
  1785.600  Grid width [m]
     0.000  Vertical flow angle [degrees]
     0.000  Horizontal flow angle [degrees]


Meteorological Boundary Conditions:

    IECKAI  IEC Kaimal spectral model
         1  IEC standard: IEC 61400-1 Ed. 3: 2005
     5.000  Percent turbulence intensity, IEC 61400-1 Ed. 3: 2005
       NTM  IEC Normal Turbulence Model
       N/A  IEC Extreme Turbulence Model (ETM) "c" parameter [m/s]
       USR  Wind profile type
    90.000  Reference height [m]
       N/A  Reference wind speed [m/s]
       N/A  Jet height [m]
       N/A  Power law exponent
     0.030  Surface roughness length [m]


Non-IEC Meteorological Boundary Conditions:

       N/A  Site latitude [degrees]
       N/A  Gradient Richardson number
       N/A  Friction or shear velocity [m/s]
       N/A  Mixing layer depth [m]
       N/A  Mean hub u'w' Reynolds stress
       N/A  Mean hub u'v' Reynolds stress
       N/A  Mean hub v'w' Reynolds stress


Spatial Coherence Models:

       IEC  u-component coherence model
       IEC  v-component coherence model
       IEC  w-component coherence model
(   12.000, 0.353E-03)  u-component coherence parameters
(   12.000, 0.353E-03)  v-component coherence parameters
(   12.000, 0.353E-03)  w-component coherence parameters
       N/A  Coherence exponent


User-Defined Profiles:

  Height   Wind Speed   Horizontal Angle
   (m)        (m/s)          (deg)      
  ------   ----------   ----------------
  353.40      10.00         318.19
  334.80      10.00         321.14
  316.20      10.00         324.10
  297.60      10.00         327.05
  279.00      10.00         330.00
  260.40      10.00         332.95
  241.80      10.00         335.90
  223.20      10.00         338.86
  204.60      10.00         341.81
  186.00      10.00         344.76
  167.40      10.00         347.71
  148.80      10.00         350.67
  130.20      10.00         353.62
  111.60      10.00         356.57
   93.00      10.00         359.52
   74.40      10.00           2.48
   55.80      10.00           5.43
   37.20      10.00           8.38
   18.60      10.00          11.33
    0.00      10.00          14.29


You have requested that the following file(s) be generated:

   /kfs3/scratch/agupta/Projects/RL_Incubator/FinalRuns_Veer/Seed4/./FFSim_Seed4/Cond00_v10.0_PL0.12_TI5.0/Seed_0/Low.bts (AeroDyn/TurbSim full-field wind file)


Turbulence Simulation Scaling Parameter Summary:

   Turbulence model used                            =  IEC Kaimal
   Turbulence characteristic                        =  User-specified
   IEC standard                                     =  IEC 61400-1 Ed. 3: 2005
   Mean wind speed at hub height                    =   10.000 m/s
   Characteristic value of standard deviation       =    0.500 m/s
   Turbulence scale                                 =   42.000 m
   u-component integral scale                       =  340.200 m
   Coherency scale                                  =  340.200 m
   Characteristic value of hub turbulence intensity =    5.000%
   Gradient Richardson number                       =    0.000

   Wind profile type                                =  Linear interpolation of user-defined profile
   Equivalent power law exponent (upper rotor disk) =    0.000
   Mean shear across rotor disk                     =    0.000 (m/s)/m
   Assumed rotor diameter                           =  353.400 m
   Surface roughness length                         =    0.030 m

   Nyquist frequency of turbulent wind field        =    2.000 Hz

   Number of time steps in the FFT                  =     3600
   Number of time steps output                      =     3600
   Number of points simulated                       =     7527


Mean Flow Angles:

   Vertical   =   0.0 degrees
   Horizontal =   0.0 degrees

Mean Wind Speed Profile:

   Height    Wind Speed   Horizontal Angle  Vertical Angle  U-comp (X)   V-comp (Y)   W-comp (Z)
     (m)        (m/s)         (degrees)       (degrees)       (m/s)        (m/s)        (m/s)   
   ------    ----------   ----------------  --------------  ----------   ----------   ----------
    354.4       10.00          318.19            0.00          7.45        -6.67         0.00
    345.1       10.00          319.51            0.00          7.60        -6.49         0.00
    335.8       10.00          320.98            0.00          7.77        -6.30         0.00
    326.5       10.00          322.46            0.00          7.93        -6.09         0.00
    317.2       10.00          323.94            0.00          8.08        -5.89         0.00
    307.9       10.00          325.41            0.00          8.23        -5.68         0.00
    298.6       10.00          326.89            0.00          8.38        -5.46         0.00
    289.3       10.00          328.37            0.00          8.51        -5.25         0.00
    280.0       10.00          329.84            0.00          8.65        -5.02         0.00
    270.7       10.00          331.32            0.00          8.77        -4.80         0.00
    261.4       10.00          332.79            0.00          8.89        -4.57         0.00
    252.1       10.00          334.27            0.00          9.01        -4.34         0.00
    242.8       10.00          335.75            0.00          9.12        -4.11         0.00
    233.5       10.00          337.22            0.00          9.22        -3.87         0.00
    224.2       10.00          338.70            0.00          9.32        -3.63         0.00
    214.9       10.00          340.17            0.00          9.41        -3.39         0.00
    205.6       10.00          341.65            0.00          9.49        -3.15         0.00
    196.3       10.00          343.13            0.00          9.57        -2.90         0.00
    187.0       10.00          344.60            0.00          9.64        -2.66         0.00
    177.7       10.00          346.08            0.00          9.71        -2.41         0.00
    168.4       10.00          347.56            0.00          9.77        -2.15         0.00
    159.1       10.00          349.03            0.00          9.82        -1.90         0.00
    149.8       10.00          350.51            0.00          9.86        -1.65         0.00
    140.5       10.00          351.98            0.00          9.90        -1.39         0.00
    131.2       10.00          353.46            0.00          9.93        -1.14         0.00
    121.9       10.00          354.94            0.00          9.96        -0.88         0.00
    112.6       10.00          356.41            0.00          9.98        -0.63         0.00
    103.3       10.00          357.89            0.00          9.99        -0.37         0.00
     94.0       10.00          359.37            0.00         10.00        -0.11         0.00
     84.7       10.00          360.84            0.00         10.00         0.15         0.00
     75.4       10.00          362.32            0.00          9.99         0.40         0.00
     66.1       10.00            3.79            0.00          9.98         0.66         0.00
     56.8       10.00            5.27            0.00          9.96         0.92         0.00
     47.5       10.00            6.75            0.00          9.93         1.17         0.00
     38.2       10.00            8.22            0.00          9.90         1.43         0.00
     28.9       10.00            9.70            0.00          9.86         1.68         0.00
     19.6       10.00           11.17            0.00          9.81         1.94         0.00
     10.3       10.00           12.65            0.00          9.76         2.19         0.00
      1.0       10.00           14.13            0.00          9.70         2.44         0.00


Harvested Random Seeds after Generation of the Random Numbers:

    377667225 K 1
            0 K 2


Hub-Height Simulated Turbulence Statistical Summary:

   Type of Wind        Min (m/s)   Mean (m/s)    Max (m/s)  Sigma (m/s)       TI (%)
   ----------------    ---------   ----------    ---------  -----------       ------
   Longitudinal (u)         8.40        10.00        11.73        0.542        5.424
   Lateral (v)             -1.21        -0.00         1.35        0.368        3.684
   Vertical (w)            -0.78         0.00         0.87        0.231        2.313
   U component              8.13         9.71        11.47        0.537        5.529
   V component             -3.70        -2.41        -1.19        0.377        3.881
   W component             -0.78         0.00         0.87        0.231        2.383
   Horizontal (U&V)         8.40        10.01        11.73        0.543        5.425
   Total                    8.40        10.01        11.75        0.543        5.422

                       Min Reynolds     Mean Reynolds    Max Reynolds    Correlation
   Product             Stress (m/s)^2   Stress (m/s)^2   Stress (m/s)^2  Coefficient
   ----------------    --------------   --------------   --------------  -----------
   u'w'                     -1.143            -0.003             0.649        -0.021
   u'v'                     -0.843             0.006             0.991         0.032
   v'w'                     -0.445             0.006             0.682         0.070


   Friction Velocity (Ustar)  =      0.052 m/s
   Maximum Instantaneous TKE  =      1.773 (m/s)^2
   Maximum Instantaneous CTKE =      0.661 (m/s)^2


Grid Point Variance Summary:

   Y-coord -892.80 -883.50 -874.20 -864.90 -855.60 -846.30 -837.00 -827.70 -818.40 -809.10 -799.80 -790.50 -781.20 -771.90 -762.60 -753.30 -744.00 -734.70 -725.40 -716.10 -706.80 -697.50 -688.20 -678.90 -669.60 -660.30 -651.00 -641.70 -632.40 -623.10 -613.80 -604.50 -595.20 -585.90 -576.60 -567.30 -558.00 -548.70 -539.40 -530.10 -520.80 -511.50 -502.20 -492.90 -483.60 -474.30 -465.00 -455.70 -446.40 -437.10 -427.80 -418.50 -409.20 -399.90 -390.60 -381.30 -372.00 -362.70 -353.40 -344.10 -334.80 -325.50 -316.20 -306.90 -297.60 -288.30 -279.00 -269.70 -260.40 -251.10 -241.80 -232.50 -223.20 -213.90 -204.60 -195.30 -186.00 -176.70 -167.40 -158.10 -148.80 -139.50 -130.20 -120.90 -111.60 -102.30  -93.00  -83.70  -74.40  -65.10  -55.80  -46.50  -37.20  -27.90  -18.60   -9.30    0.00    9.30   18.60   27.90   37.20   46.50   55.80   65.10   74.40   83.70   93.00  102.30  111.60  120.90  130.20  139.50  148.80  158.10  167.40  176.70  186.00  195.30  204.60  213.90  223.20  232.50  241.80  251.10  260.40  269.70  279.00  288.30  297.60  306.90  316.20  325.50  334.80  344.10  353.40  362.70  372.00  381.30  390.60  399.90  409.20  418.50  427.80  437.10  446.40  455.70  465.00  474.30  483.60  492.90  502.20  511.50  520.80  530.10  539.40  548.70  558.00  567.30  576.60  585.90  595.20  604.50  613.80  623.10  632.40  641.70  651.00  660.30  669.60  678.90  688.20  697.50  706.80  716.10  725.40  734.70  744.00  753.30  762.60  771.90  781.20  790.50  799.80  809.10  818.40  827.70  837.00  846.30  855.60  864.90  874.20  883.50  892.80

   Height   Standard deviation at grid points for the u component:
   354.40    0.533   0.500   0.492   0.470   0.474   0.440   0.459   0.443   0.424   0.420   0.415   0.386   0.420   0.436   0.478   0.471   0.481   0.493   0.515   0.516   0.535   0.507   0.517   0.488   0.452   0.457   0.440   0.431   0.453   0.474   0.512   0.507   0.493   0.496   0.493   0.529   0.525   0.501   0.521   0.515   0.515   0.484   0.505   0.499   0.449   0.438   0.452   0.456   0.467   0.500   0.490   0.463   0.457   0.451   0.452   0.440   0.428   0.428   0.392   0.400   0.417   0.446   0.441   0.463   0.465   0.471   0.492   0.456   0.465   0.523   0.526   0.495   0.488   0.477   0.454   0.502   0.529   0.501   0.483   0.488   0.478   0.489   0.496   0.501   0.483   0.491   0.475   0.468   0.456   0.457   0.466   0.510   0.501   0.561   0.509   0.491   0.527   0.482   0.500   0.511   0.524   0.530   0.484   0.484   0.502   0.490   0.545   0.523   0.509   0.529   0.518   0.513   0.494   0.492   0.510   0.512   0.569   0.590   0.566   0.480   0.494   0.454   0.438   0.438   0.446   0.448   0.467   0.453   0.431   0.450   0.472   0.470   0.473   0.460   0.433   0.407   0.428   0.482   0.492   0.484   0.503   0.481   0.474   0.479   0.443   0.408   0.406   0.395   0.389   0.422   0.467   0.477   0.478   0.471   0.498   0.515   0.515   0.493   0.465   0.507   0.499   0.474   0.432   0.429   0.451   0.470   0.453   0.446   0.418   0.445   0.450   0.437   0.421   0.435   0.439   0.404   0.416   0.446   0.432   0.417   0.391   0.421   0.424   0.478   0.492   0.493   0.455   0.454   0.489   0.472   0.471   0.450   0.435
   345.10    0.498   0.480   0.510   0.489   0.480   0.428   0.440   0.446   0.414   0.403   0.421   0.420   0.432   0.450   0.467   0.464   0.465   0.490   0.516   0.540   0.555   0.516   0.498   0.501   0.465   0.442   0.422   0.419   0.448   0.488   0.512   0.498   0.482   0.488   0.488   0.531   0.527   0.502   0.516   0.501   0.535   0.497   0.505   0.481   0.429   0.454   0.433   0.440   0.457   0.491   0.512   0.470   0.481   0.483   0.469   0.422   0.427   0.425   0.411   0.390   0.425   0.440   0.450   0.444   0.447   0.449   0.479   0.484   0.505   0.533   0.533   0.508   0.505   0.477   0.458   0.488   0.536   0.536   0.510   0.481   0.484   0.463   0.473   0.515   0.520   0.495   0.488   0.459   0.475   0.479   0.434   0.479   0.501   0.528   0.526   0.509   0.519   0.473   0.504   0.534   0.560   0.539   0.495   0.526   0.524   0.516   0.520   0.524   0.516   0.512   0.542   0.508   0.475   0.493   0.514   0.530   0.549   0.572   0.565   0.520   0.482   0.444   0.452   0.438   0.439   0.470   0.483   0.457   0.447   0.424   0.441   0.444   0.420   0.450   0.421   0.388   0.449   0.466   0.500   0.474   0.467   0.479   0.464   0.468   0.426   0.410   0.387   0.407   0.423   0.436   0.448   0.453   0.452   0.471   0.523   0.529   0.531   0.524   0.523   0.552   0.502   0.448   0.450   0.414   0.428   0.447   0.439   0.432   0.389   0.417   0.428   0.443   0.414   0.430   0.445   0.449   0.444   0.437   0.451   0.423   0.421   0.444   0.464   0.480   0.502   0.483   0.492   0.453   0.488   0.494   0.505   0.493   0.501
   335.80    0.469   0.475   0.501   0.469   0.454   0.402   0.382   0.436   0.404   0.364   0.366   0.372   0.421   0.439   0.445   0.478   0.494   0.491   0.514   0.482   0.493   0.493   0.479   0.460   0.461   0.439   0.404   0.405   0.430   0.459   0.483   0.501   0.474   0.461   0.477   0.489   0.512   0.516   0.475   0.517   0.504   0.515   0.507   0.517   0.483   0.475   0.462   0.440   0.471   0.512   0.495   0.509   0.496   0.490   0.444   0.449   0.448   0.426   0.415   0.450   0.421   0.407   0.410   0.442   0.451   0.453   0.490   0.486   0.524   0.543   0.561   0.511   0.490   0.458   0.490   0.514   0.494   0.517   0.501   0.491   0.525   0.498   0.531   0.514   0.513   0.492   0.479   0.457   0.455   0.457   0.444   0.450   0.464   0.474   0.494   0.489   0.485   0.464   0.503   0.517   0.514   0.541   0.524   0.502   0.522   0.513   0.516   0.530   0.528   0.523   0.530   0.499   0.444   0.464   0.490   0.498   0.528   0.506   0.532   0.478   0.475   0.468   0.435   0.446   0.451   0.451   0.449   0.454   0.449   0.434   0.434   0.407   0.411   0.420   0.412   0.419   0.450   0.464   0.474   0.484   0.440   0.432   0.431   0.448   0.446   0.421   0.436   0.435   0.472   0.439   0.459   0.482   0.462   0.514   0.541   0.543   0.552   0.563   0.592   0.546   0.499   0.511   0.457   0.413   0.422   0.418   0.420   0.415   0.401   0.415   0.438   0.421   0.432   0.457   0.456   0.492   0.459   0.438   0.446   0.441   0.441   0.450   0.479   0.465   0.491   0.497   0.451   0.457   0.483   0.480   0.469   0.487   0.483
   326.50    0.488   0.475   0.477   0.470   0.436   0.391   0.401   0.434   0.446   0.417   0.391   0.393   0.434   0.415   0.418   0.439   0.467   0.490   0.487   0.471   0.475   0.461   0.465   0.493   0.461   0.436   0.423   0.398   0.418   0.449   0.449   0.480   0.463   0.478   0.507   0.514   0.504   0.503   0.483   0.523   0.507   0.485   0.494   0.480   0.483   0.479   0.443   0.441   0.481   0.522   0.511   0.490   0.486   0.483   0.477   0.434   0.436   0.421   0.411   0.424   0.415   0.417   0.394   0.438   0.439   0.479   0.493   0.482   0.516   0.520   0.542   0.499   0.484   0.464   0.478   0.481   0.507   0.521   0.541   0.540   0.535   0.520   0.541   0.515   0.525   0.483   0.458   0.495   0.503   0.474   0.434   0.444   0.442   0.471   0.487   0.495   0.501   0.464   0.452   0.485   0.492   0.509   0.484   0.478   0.490   0.505   0.504   0.513   0.539   0.515   0.486   0.478   0.445   0.497   0.489   0.531   0.530   0.520   0.500   0.489   0.464   0.482   0.439   0.429   0.437   0.442   0.447   0.424   0.431   0.431   0.422   0.432   0.404   0.412   0.416   0.452   0.446   0.449   0.462   0.456   0.425   0.429   0.422   0.423   0.440   0.424   0.444   0.457   0.419   0.458   0.455   0.504   0.482   0.494   0.549   0.498   0.495   0.474   0.533   0.539   0.507   0.499   0.445   0.418   0.384   0.404   0.392   0.386   0.383   0.420   0.436   0.443   0.462   0.442   0.473   0.474   0.499   0.448   0.434   0.461   0.466   0.467   0.490   0.479   0.491   0.479   0.452   0.445   0.512   0.479   0.488   0.515   0.518
   317.20    0.465   0.452   0.458   0.445   0.415   0.392   0.401   0.399   0.408   0.436   0.380   0.390   0.412   0.392   0.418   0.416   0.484   0.506   0.523   0.500   0.492   0.487   0.499   0.480   0.473   0.457   0.429   0.414   0.425   0.444   0.461   0.518   0.486   0.477   0.483   0.497   0.479   0.487   0.496   0.491   0.507   0.487   0.496   0.512   0.491   0.463   0.434   0.443   0.460   0.490   0.502   0.524   0.497   0.467   0.463   0.445   0.429   0.400   0.405   0.411   0.417   0.418   0.407   0.436   0.439   0.445   0.469   0.512   0.487   0.486   0.484   0.487   0.468   0.514   0.491   0.503   0.501   0.522   0.559   0.601   0.604   0.579   0.557   0.528   0.523   0.521   0.486   0.485   0.498   0.495   0.395   0.405   0.428   0.456   0.495   0.482   0.478   0.448   0.490   0.493   0.524   0.543   0.504   0.493   0.452   0.480   0.473   0.529   0.520   0.487   0.453   0.426   0.457   0.457   0.507   0.503   0.523   0.508   0.479   0.478   0.496   0.475   0.458   0.436   0.428   0.433   0.455   0.436   0.420   0.401   0.413   0.447   0.398   0.421   0.450   0.449   0.454   0.430   0.438   0.440   0.442   0.405   0.395   0.390   0.408   0.440   0.449   0.436   0.436   0.455   0.461   0.474   0.486   0.482   0.495   0.490   0.464   0.493   0.511   0.510   0.499   0.472   0.447   0.414   0.434   0.426   0.389   0.378   0.401   0.435   0.449   0.427   0.452   0.446   0.461   0.469   0.457   0.454   0.446   0.510   0.470   0.475   0.467   0.488   0.464   0.419   0.438   0.450   0.469   0.508   0.493   0.515   0.506
   307.90    0.470   0.467   0.439   0.446   0.396   0.383   0.424   0.420   0.454   0.420   0.420   0.418   0.413   0.413   0.403   0.440   0.467   0.506   0.511   0.477   0.460   0.454   0.455   0.458   0.464   0.490   0.462   0.421   0.423   0.441   0.472   0.481   0.483   0.445   0.471   0.461   0.494   0.488   0.500   0.460   0.513   0.526   0.493   0.505   0.496   0.472   0.460   0.443   0.460   0.484   0.499   0.516   0.469   0.435   0.428   0.427   0.420   0.431   0.414   0.445   0.434   0.444   0.447   0.444   0.414   0.430   0.459   0.506   0.493   0.500   0.513   0.479   0.480   0.474   0.485   0.514   0.507   0.544   0.551   0.583   0.606   0.598   0.539   0.522   0.490   0.472   0.432   0.445   0.471   0.452   0.406   0.445   0.428   0.436   0.438   0.444   0.461   0.490   0.505   0.521   0.529   0.491   0.480   0.466   0.475   0.466   0.532   0.486   0.483   0.486   0.439   0.437   0.426   0.459   0.527   0.510   0.527   0.496   0.463   0.455   0.459   0.463   0.468   0.442   0.414   0.411   0.456   0.465   0.413   0.459   0.420   0.387   0.406   0.436   0.439   0.421   0.434   0.428   0.430   0.422   0.437   0.431   0.382   0.399   0.419   0.425   0.424   0.423   0.462   0.462   0.457   0.448   0.459   0.433   0.472   0.489   0.476   0.467   0.471   0.472   0.485   0.464   0.493   0.461   0.457   0.455   0.440   0.438   0.447   0.441   0.485   0.490   0.484   0.497   0.458   0.492   0.489   0.480   0.495   0.490   0.517   0.496   0.491   0.507   0.476   0.446   0.433   0.446   0.488   0.497   0.524   0.512   0.504
   298.60    0.493   0.480   0.466   0.467   0.436   0.431   0.396   0.440   0.429   0.416   0.443   0.455   0.425   0.400   0.435   0.446   0.472   0.487   0.469   0.467   0.468   0.460   0.471   0.500   0.472   0.486   0.465   0.443   0.434   0.426   0.430   0.458   0.454   0.436   0.434   0.437   0.480   0.462   0.469   0.460   0.516   0.524   0.515   0.545   0.539   0.516   0.505   0.461   0.450   0.448   0.454   0.473   0.459   0.420   0.423   0.431   0.441   0.416   0.437   0.463   0.428   0.415   0.419   0.420   0.397   0.423   0.463   0.464   0.488   0.517   0.513   0.528   0.529   0.504   0.484   0.508   0.510   0.495   0.566   0.574   0.601   0.608   0.549   0.544   0.536   0.489   0.466   0.442   0.455   0.450   0.458   0.450   0.431   0.414   0.441   0.445   0.472   0.495   0.537   0.520   0.487   0.468   0.467   0.493   0.482   0.468   0.514   0.504   0.503   0.470   0.467   0.441   0.434   0.463   0.485   0.508   0.472   0.480   0.439   0.487   0.468   0.436   0.435   0.448   0.433   0.446   0.453   0.442   0.429   0.417   0.412   0.415   0.407   0.410   0.410   0.420   0.436   0.425   0.436   0.461   0.433   0.433   0.428   0.399   0.408   0.412   0.403   0.427   0.448   0.444   0.430   0.424   0.418   0.449   0.484   0.457   0.477   0.432   0.437   0.447   0.485   0.460   0.468   0.489   0.471   0.471   0.459   0.479   0.480   0.505   0.533   0.520   0.501   0.491   0.495   0.458   0.485   0.500   0.484   0.519   0.503   0.508   0.528   0.507   0.489   0.481   0.483   0.493   0.506   0.541   0.540   0.512   0.523
   289.30    0.462   0.465   0.437   0.421   0.408   0.426   0.398   0.422   0.436   0.431   0.432   0.460   0.445   0.410   0.435   0.471   0.483   0.489   0.459   0.461   0.467   0.451   0.479   0.471   0.452   0.456   0.479   0.460   0.437   0.418   0.420   0.438   0.425   0.406   0.406   0.432   0.452   0.458   0.474   0.507   0.484   0.480   0.519   0.533   0.522   0.515   0.481   0.465   0.451   0.422   0.452   0.471   0.440   0.406   0.368   0.389   0.384   0.410   0.417   0.419   0.431   0.421   0.403   0.403   0.426   0.423   0.428   0.464   0.457   0.509   0.488   0.531   0.518   0.508   0.510   0.499   0.493   0.490   0.544   0.596   0.588   0.595   0.585   0.552   0.517   0.517   0.476   0.464   0.478   0.479   0.464   0.477   0.455   0.428   0.406   0.445   0.464   0.500   0.539   0.523   0.502   0.467   0.452   0.444   0.464   0.483   0.483   0.513   0.527   0.469   0.487   0.495   0.451   0.458   0.476   0.497   0.488   0.465   0.477   0.491   0.481   0.423   0.432   0.439   0.456   0.468   0.446   0.422   0.438   0.402   0.408   0.415   0.382   0.366   0.376   0.407   0.433   0.432   0.439   0.428   0.417   0.411   0.410   0.396   0.412   0.406   0.414   0.415   0.412   0.416   0.410   0.410   0.446   0.448   0.495   0.479   0.474   0.461   0.451   0.434   0.439   0.432   0.462   0.481   0.479   0.482   0.488   0.471   0.510   0.552   0.558   0.537   0.536   0.513   0.487   0.516   0.507   0.482   0.532   0.535   0.521   0.495   0.495   0.524   0.521   0.527   0.503   0.504   0.518   0.557   0.558   0.509   0.507
   280.00    0.422   0.466   0.444   0.441   0.430   0.419   0.436   0.408   0.420   0.437   0.427   0.445   0.428   0.456   0.460   0.480   0.484   0.465   0.453   0.489   0.482   0.452   0.464   0.465   0.465   0.444   0.459   0.464   0.436   0.401   0.409   0.431   0.466   0.421   0.408   0.434   0.422   0.456   0.472   0.501   0.519   0.506   0.496   0.523   0.491   0.513   0.503   0.483   0.469   0.425   0.444   0.428   0.401   0.373   0.366   0.376   0.392   0.407   0.430   0.432   0.416   0.413   0.384   0.399   0.409   0.417   0.433   0.434   0.465   0.480   0.482   0.498   0.509   0.490   0.511   0.498   0.528   0.489   0.507   0.567   0.600   0.601   0.557   0.527   0.500   0.498   0.486   0.475   0.487   0.490   0.469   0.486   0.491   0.438   0.418   0.426   0.462   0.485   0.520   0.538   0.477   0.441   0.438   0.468   0.459   0.458   0.468   0.468   0.500   0.469   0.488   0.464   0.454   0.440   0.467   0.487   0.484   0.470   0.507   0.506   0.501   0.443   0.436   0.418   0.451   0.438   0.452   0.422   0.420   0.434   0.439   0.401   0.378   0.373   0.373   0.382   0.439   0.441   0.427   0.430   0.452   0.449   0.426   0.438   0.421   0.433   0.432   0.433   0.426   0.397   0.429   0.429   0.444   0.461   0.490   0.465   0.483   0.475   0.450   0.459   0.441   0.457   0.456   0.458   0.466   0.450   0.441   0.471   0.513   0.548   0.553   0.516   0.542   0.548   0.519   0.534   0.506   0.513   0.539   0.507   0.563   0.526   0.516   0.515   0.501   0.505   0.510   0.525   0.511   0.542   0.511   0.485   0.528
   270.70    0.435   0.468   0.439   0.457   0.475   0.452   0.455   0.440   0.432   0.457   0.421   0.452   0.441   0.435   0.463   0.445   0.498   0.479   0.498   0.472   0.486   0.458   0.443   0.481   0.442   0.448   0.449   0.423   0.434   0.415   0.388   0.430   0.453   0.454   0.442   0.443   0.469   0.467   0.445   0.478   0.516   0.508   0.499   0.478   0.504   0.507   0.481   0.455   0.493   0.449   0.413   0.405   0.437   0.407   0.401   0.385   0.400   0.407   0.441   0.419   0.400   0.395   0.401   0.396   0.404   0.424   0.444   0.443   0.452   0.443   0.464   0.443   0.469   0.493   0.526   0.521   0.536   0.510   0.528   0.537   0.572   0.558   0.538   0.556   0.536   0.523   0.486   0.479   0.472   0.489   0.502   0.502   0.471   0.434   0.431   0.469   0.465   0.473   0.523   0.505   0.463   0.480   0.452   0.453   0.468   0.467   0.461   0.443   0.472   0.468   0.491   0.467   0.460   0.440   0.475   0.497   0.484   0.484   0.486   0.468   0.479   0.417   0.438   0.424   0.447   0.444   0.424   0.418   0.404   0.410   0.398   0.405   0.404   0.383   0.394   0.435   0.443   0.410   0.418   0.417   0.454   0.434   0.442   0.448   0.414   0.436   0.433   0.446   0.419   0.434   0.415   0.444   0.426   0.447   0.478   0.510   0.476   0.454   0.444   0.442   0.449   0.446   0.451   0.459   0.443   0.441   0.430   0.463   0.447   0.510   0.516   0.503   0.530   0.521   0.505   0.535   0.555   0.541   0.566   0.552   0.532   0.497   0.505   0.482   0.453   0.469   0.491   0.499   0.493   0.511   0.514   0.517   0.514
   261.40    0.465   0.484   0.495   0.480   0.494   0.489   0.452   0.450   0.444   0.439   0.439   0.433   0.445   0.438   0.420   0.459   0.472   0.498   0.505   0.484   0.479   0.451   0.438   0.446   0.444   0.412   0.431   0.446   0.416   0.421   0.419   0.448   0.453   0.438   0.441   0.452   0.468   0.487   0.475   0.471   0.490   0.508   0.504   0.525   0.518   0.488   0.475   0.469   0.462   0.458   0.438   0.428   0.420   0.399   0.399   0.372   0.410   0.408   0.440   0.428   0.405   0.404   0.414   0.432   0.405   0.405   0.415   0.415   0.419   0.416   0.442   0.436   0.491   0.495   0.527   0.502   0.509   0.532   0.536   0.530   0.572   0.540   0.521   0.524   0.531   0.499   0.476   0.493   0.479   0.515   0.512   0.520   0.444   0.466   0.466   0.455   0.489   0.498   0.528   0.510   0.489   0.495   0.480   0.455   0.479   0.491   0.489   0.470   0.476   0.468   0.487   0.478   0.445   0.455   0.470   0.435   0.464   0.466   0.473   0.486   0.451   0.439   0.453   0.456   0.460   0.417   0.414   0.396   0.385   0.378   0.395   0.384   0.384   0.375   0.408   0.433   0.435   0.418   0.407   0.437   0.437   0.440   0.450   0.450   0.457   0.456   0.416   0.414   0.446   0.423   0.407   0.438   0.436   0.481   0.515   0.485   0.478   0.444   0.430   0.424   0.440   0.454   0.464   0.458   0.460   0.469   0.441   0.466   0.475   0.443   0.522   0.542   0.521   0.500   0.517   0.535   0.573   0.560   0.570   0.545   0.552   0.514   0.496   0.462   0.476   0.480   0.478   0.455   0.504   0.537   0.504   0.512   0.553
   252.10    0.463   0.475   0.495   0.468   0.481   0.484   0.478   0.450   0.458   0.457   0.408   0.406   0.431   0.412   0.425   0.444   0.437   0.457   0.487   0.497   0.483   0.442   0.450   0.456   0.419   0.421   0.417   0.400   0.406   0.415   0.434   0.437   0.452   0.471   0.455   0.441   0.454   0.453   0.475   0.499   0.472   0.496   0.464   0.527   0.517   0.522   0.495   0.489   0.488   0.460   0.454   0.466   0.430   0.414   0.415   0.399   0.418   0.409   0.402   0.423   0.436   0.405   0.410   0.439   0.410   0.418   0.418   0.412   0.434   0.445   0.428   0.459   0.518   0.520   0.506   0.515   0.528   0.548   0.526   0.552   0.539   0.541   0.533   0.571   0.523   0.495   0.501   0.501   0.500   0.519   0.524   0.501   0.491   0.483   0.453   0.466   0.495   0.478   0.532   0.514   0.512   0.506   0.476   0.433   0.468   0.479   0.486   0.483   0.501   0.481   0.483   0.513   0.465   0.469   0.438   0.442   0.431   0.462   0.441   0.457   0.418   0.406   0.422   0.445   0.452   0.429   0.399   0.387   0.383   0.409   0.453   0.388   0.366   0.374   0.386   0.408   0.422   0.442   0.430   0.442   0.476   0.448   0.442   0.454   0.432   0.427   0.422   0.423   0.436   0.454   0.426   0.431   0.479   0.501   0.505   0.494   0.494   0.443   0.466   0.444   0.428   0.460   0.452   0.476   0.466   0.416   0.440   0.468   0.439   0.437   0.476   0.509   0.494   0.501   0.510   0.541   0.534   0.568   0.581   0.543   0.538   0.521   0.494   0.455   0.443   0.479   0.452   0.419   0.493   0.531   0.533   0.550   0.554
   242.80    0.455   0.430   0.458   0.459   0.502   0.488   0.490   0.483   0.463   0.449   0.435   0.390   0.387   0.374   0.402   0.402   0.431   0.476   0.461   0.454   0.471   0.485   0.468   0.445   0.450   0.426   0.423   0.397   0.409   0.420   0.422   0.450   0.460   0.477   0.472   0.470   0.417   0.477   0.505   0.477   0.485   0.491   0.454   0.511   0.520   0.501   0.508   0.500   0.480   0.501   0.436   0.456   0.442   0.443   0.406   0.416   0.395   0.408   0.381   0.398   0.392   0.397   0.426   0.426   0.419   0.427   0.409   0.405   0.434   0.433   0.450   0.500   0.524   0.503   0.481   0.495   0.521   0.514   0.499   0.523   0.504   0.508   0.545   0.559   0.543   0.510   0.520   0.503   0.518   0.497   0.534   0.530   0.523   0.508   0.494   0.482   0.523   0.554   0.545   0.543   0.538   0.526   0.506   0.491   0.502   0.492   0.468   0.506   0.526   0.526   0.502   0.503   0.489   0.511   0.466   0.475   0.479   0.480   0.457   0.435   0.397   0.385   0.424   0.396   0.443   0.427   0.421   0.417   0.421   0.418   0.441   0.402   0.377   0.372   0.375   0.395   0.430   0.465   0.477   0.481   0.463   0.448   0.443   0.461   0.434   0.434   0.402   0.412   0.427   0.415   0.429   0.433   0.438   0.473   0.492   0.477   0.459   0.428   0.431   0.475   0.475   0.469   0.461   0.491   0.474   0.459   0.426   0.421   0.418   0.426   0.458   0.515   0.524   0.543   0.514   0.511   0.533   0.552   0.519   0.526   0.509   0.501   0.463   0.461   0.439   0.465   0.441   0.474   0.529   0.543   0.540   0.553   0.543
   233.50    0.446   0.445   0.435   0.473   0.461   0.485   0.496   0.507   0.470   0.465   0.430   0.396   0.395   0.375   0.382   0.423   0.448   0.453   0.461   0.460   0.477   0.457   0.467   0.475   0.440   0.417   0.429   0.420   0.417   0.423   0.439   0.457   0.478   0.461   0.447   0.447   0.482   0.484   0.478   0.483   0.486   0.486   0.468   0.492   0.485   0.498   0.517   0.491   0.488   0.493   0.452   0.467   0.448   0.436   0.417   0.395   0.392   0.398   0.406   0.388   0.366   0.400   0.414   0.415   0.436   0.409   0.417   0.433   0.438   0.431   0.461   0.474   0.481   0.457   0.453   0.469   0.497   0.524   0.516   0.518   0.519   0.520   0.547   0.564   0.562   0.515   0.498   0.493   0.530   0.529   0.549   0.522   0.542   0.534   0.496   0.471   0.473   0.508   0.533   0.560   0.583   0.548   0.529   0.508   0.464   0.491   0.529   0.555   0.564   0.540   0.526   0.517   0.524   0.511   0.481   0.468   0.470   0.457   0.443   0.425   0.391   0.408   0.418   0.434   0.441   0.432   0.429   0.427   0.422   0.436   0.420   0.419   0.375   0.370   0.373   0.381   0.433   0.452   0.459   0.452   0.466   0.471   0.435   0.442   0.426   0.446   0.427   0.405   0.414   0.444   0.457   0.450   0.429   0.433   0.458   0.440   0.431   0.415   0.470   0.453   0.467   0.504   0.478   0.471   0.491   0.457   0.430   0.441   0.440   0.423   0.473   0.522   0.486   0.518   0.494   0.496   0.514   0.528   0.478   0.480   0.473   0.465   0.475   0.442   0.465   0.447   0.470   0.509   0.557   0.578   0.601   0.577   0.545
   224.20    0.453   0.442   0.457   0.443   0.453   0.477   0.488   0.491   0.459   0.438   0.402   0.401   0.375   0.414   0.390   0.418   0.482   0.483   0.488   0.458   0.437   0.440   0.459   0.489   0.464   0.467   0.431   0.439   0.409   0.425   0.459   0.458   0.453   0.461   0.434   0.466   0.476   0.504   0.531   0.517   0.503   0.512   0.458   0.471   0.501   0.494   0.513   0.474   0.466   0.459   0.418   0.447   0.448   0.415   0.390   0.403   0.412   0.401   0.364   0.370   0.378   0.398   0.375   0.388   0.421   0.435   0.438   0.431   0.422   0.458   0.434   0.455   0.453   0.434   0.448   0.495   0.481   0.514   0.494   0.529   0.512   0.541   0.533   0.555   0.567   0.552   0.537   0.518   0.515   0.529   0.533   0.527   0.553   0.546   0.510   0.463   0.468   0.479   0.510   0.535   0.579   0.549   0.569   0.518   0.503   0.550   0.529   0.548   0.569   0.560   0.513   0.521   0.512   0.497   0.515   0.485   0.452   0.438   0.452   0.408   0.406   0.405   0.425   0.445   0.444   0.445   0.459   0.450   0.423   0.447   0.413   0.408   0.369   0.368   0.387   0.425   0.455   0.467   0.450   0.424   0.429   0.453   0.433   0.456   0.440   0.432   0.426   0.414   0.424   0.431   0.475   0.450   0.443   0.423   0.414   0.439   0.411   0.415   0.461   0.475   0.535   0.516   0.504   0.459   0.472   0.448   0.447   0.442   0.444   0.454   0.456   0.475   0.495   0.466   0.505   0.473   0.486   0.490   0.465   0.463   0.458   0.480   0.472   0.465   0.465   0.490   0.538   0.559   0.544   0.583   0.605   0.579   0.555
   214.90    0.462   0.426   0.430   0.439   0.442   0.450   0.479   0.478   0.460   0.446   0.408   0.401   0.380   0.418   0.429   0.435   0.470   0.484   0.504   0.494   0.464   0.437   0.471   0.441   0.481   0.435   0.453   0.453   0.423   0.425   0.449   0.461   0.435   0.453   0.473   0.487   0.486   0.480   0.519   0.533   0.507   0.469   0.442   0.459   0.482   0.488   0.470   0.465   0.439   0.437   0.469   0.436   0.425   0.396   0.396   0.410   0.416   0.394   0.387   0.378   0.388   0.385   0.380   0.369   0.398   0.418   0.427   0.437   0.453   0.432   0.419   0.478   0.436   0.432   0.427   0.453   0.513   0.499   0.482   0.511   0.514   0.520   0.553   0.565   0.548   0.538   0.530   0.515   0.506   0.514   0.541   0.543   0.541   0.527   0.487   0.520   0.485   0.498   0.513   0.548   0.553   0.543   0.528   0.533   0.545   0.551   0.545   0.544   0.522   0.507   0.533   0.504   0.509   0.545   0.530   0.478   0.459   0.446   0.429   0.423   0.403   0.391   0.425   0.425   0.439   0.448   0.495   0.441   0.465   0.448   0.423   0.410   0.420   0.421   0.432   0.436   0.426   0.436   0.443   0.432   0.386   0.400   0.432   0.440   0.458   0.455   0.433   0.397   0.398   0.432   0.440   0.458   0.438   0.430   0.415   0.416   0.427   0.412   0.438   0.478   0.499   0.503   0.477   0.482   0.469   0.471   0.477   0.471   0.413   0.440   0.466   0.495   0.474   0.481   0.472   0.471   0.489   0.482   0.456   0.450   0.489   0.505   0.532   0.474   0.476   0.488   0.530   0.522   0.508   0.552   0.568   0.550   0.524
   205.60    0.446   0.443   0.450   0.465   0.478   0.434   0.433   0.440   0.431   0.385   0.411   0.409   0.407   0.425   0.441   0.455   0.470   0.477   0.454   0.473   0.496   0.470   0.467   0.470   0.461   0.436   0.433   0.438   0.466   0.450   0.492   0.450   0.434   0.441   0.474   0.476   0.468   0.502   0.506   0.521   0.524   0.484   0.461   0.469   0.490   0.500   0.479   0.439   0.469   0.416   0.441   0.427   0.418   0.410   0.389   0.400   0.418   0.413   0.410   0.383   0.349   0.375   0.387   0.384   0.371   0.396   0.428   0.456   0.451   0.426   0.451   0.444   0.445   0.428   0.445   0.451   0.479   0.459   0.462   0.476   0.493   0.539   0.543   0.534   0.558   0.575   0.546   0.548   0.575   0.557   0.545   0.531   0.534   0.522   0.494   0.520   0.508   0.512   0.495   0.525   0.546   0.541   0.561   0.556   0.545   0.533   0.523   0.542   0.517   0.518   0.510   0.487   0.516   0.530   0.504   0.474   0.472   0.443   0.457   0.418   0.414   0.403   0.410   0.455   0.435   0.476   0.510   0.487   0.468   0.433   0.436   0.427   0.393   0.402   0.397   0.393   0.428   0.428   0.430   0.413   0.391   0.421   0.413   0.410   0.432   0.428   0.436   0.437   0.402   0.408   0.407   0.397   0.400   0.415   0.402   0.421   0.429   0.413   0.431   0.470   0.478   0.489   0.512   0.461   0.471   0.472   0.490   0.462   0.442   0.435   0.453   0.465   0.440   0.436   0.476   0.499   0.462   0.467   0.463   0.426   0.444   0.479   0.508   0.504   0.495   0.488   0.515   0.530   0.513   0.547   0.575   0.532   0.527
   196.30    0.426   0.439   0.446   0.452   0.464   0.447   0.412   0.446   0.439   0.448   0.404   0.414   0.390   0.420   0.450   0.459   0.491   0.458   0.474   0.489   0.471   0.453   0.454   0.458   0.470   0.455   0.445   0.477   0.470   0.481   0.497   0.476   0.446   0.452   0.438   0.456   0.449   0.455   0.464   0.496   0.544   0.491   0.481   0.448   0.472   0.483   0.473   0.491   0.453   0.442   0.447   0.438   0.443   0.429   0.416   0.413   0.413   0.402   0.388   0.360   0.371   0.399   0.386   0.389   0.423   0.425   0.427   0.438   0.420   0.412   0.433   0.436   0.461   0.456   0.486   0.455   0.437   0.446   0.439   0.472   0.487   0.518   0.535   0.525   0.526   0.541   0.521   0.536   0.555   0.593   0.542   0.512   0.563   0.536   0.518   0.502   0.522   0.508   0.499   0.505   0.529   0.527   0.539   0.520   0.540   0.535   0.506   0.527   0.513   0.492   0.497   0.473   0.526   0.515   0.517   0.466   0.476   0.448   0.470   0.429   0.420   0.411   0.412   0.415   0.453   0.481   0.489   0.500   0.507   0.487   0.452   0.453   0.420   0.407   0.414   0.398   0.400   0.432   0.429   0.439   0.451   0.392   0.419   0.397   0.418   0.458   0.418   0.408   0.392   0.420   0.427   0.399   0.389   0.395   0.403   0.413   0.390   0.415   0.425   0.450   0.464   0.443   0.463   0.467   0.486   0.477   0.476   0.468   0.465   0.451   0.455   0.477   0.422   0.416   0.436   0.457   0.450   0.457   0.413   0.428   0.452   0.447   0.487   0.500   0.484   0.476   0.496   0.516   0.547   0.536   0.544   0.502   0.512
   187.00    0.436   0.411   0.417   0.428   0.452   0.438   0.433   0.425   0.442   0.437   0.423   0.398   0.404   0.404   0.437   0.456   0.456   0.458   0.461   0.467   0.483   0.481   0.461   0.442   0.433   0.446   0.462   0.495   0.508   0.505   0.485   0.467   0.467   0.454   0.482   0.440   0.450   0.483   0.499   0.511   0.536   0.533   0.527   0.470   0.477   0.472   0.493   0.480   0.447   0.453   0.456   0.454   0.430   0.456   0.424   0.402   0.409   0.395   0.395   0.364   0.381   0.413   0.421   0.418   0.401   0.401   0.392   0.377   0.385   0.396   0.430   0.448   0.455   0.471   0.491   0.490   0.477   0.440   0.457   0.478   0.470   0.505   0.480   0.478   0.491   0.496   0.464   0.509   0.539   0.563   0.574   0.540   0.558   0.550   0.566   0.551   0.521   0.538   0.499   0.513   0.535   0.553   0.544   0.541   0.533   0.527   0.534   0.510   0.476   0.470   0.466   0.496   0.507   0.531   0.488   0.485   0.496   0.453   0.447   0.434   0.435   0.392   0.431   0.455   0.470   0.470   0.508   0.505   0.517   0.469   0.471   0.456   0.437   0.465   0.429   0.397   0.424   0.432   0.432   0.408   0.417   0.421   0.416   0.408   0.423   0.441   0.411   0.407   0.407   0.452   0.428   0.414   0.398   0.403   0.398   0.415   0.403   0.410   0.426   0.436   0.446   0.464   0.445   0.452   0.477   0.483   0.501   0.513   0.459   0.452   0.454   0.452   0.487   0.456   0.462   0.465   0.432   0.441   0.434   0.420   0.437   0.458   0.470   0.488   0.510   0.479   0.530   0.544   0.525   0.487   0.501   0.479   0.486
   177.70    0.441   0.448   0.433   0.439   0.448   0.464   0.428   0.421   0.428   0.433   0.417   0.413   0.397   0.417   0.426   0.441   0.444   0.462   0.430   0.477   0.504   0.470   0.492   0.469   0.448   0.418   0.451   0.467   0.496   0.504   0.469   0.461   0.426   0.419   0.453   0.445   0.435   0.463   0.471   0.500   0.525   0.535   0.524   0.468   0.473   0.472   0.471   0.472   0.420   0.435   0.441   0.408   0.432   0.482   0.453   0.435   0.409   0.392   0.383   0.376   0.416   0.419   0.426   0.430   0.415   0.420   0.407   0.414   0.397   0.404   0.447   0.448   0.422   0.437   0.443   0.496   0.509   0.495   0.493   0.478   0.477   0.501   0.477   0.471   0.511   0.478   0.429   0.497   0.518   0.534   0.565   0.553   0.564   0.596   0.565   0.553   0.542   0.512   0.513   0.489   0.536   0.537   0.536   0.513   0.524   0.517   0.537   0.501   0.482   0.466   0.462   0.501   0.509   0.517   0.475   0.456   0.468   0.453   0.440   0.439   0.438   0.453   0.430   0.469   0.464   0.494   0.504   0.517   0.486   0.472   0.480   0.479   0.462   0.465   0.448   0.421   0.443   0.466   0.450   0.422   0.418   0.411   0.429   0.411   0.424   0.447   0.421   0.395   0.438   0.454   0.454   0.397   0.393   0.414   0.393   0.390   0.421   0.423   0.425   0.432   0.433   0.449   0.425   0.466   0.503   0.483   0.509   0.508   0.480   0.482   0.448   0.460   0.475   0.484   0.487   0.493   0.489   0.457   0.428   0.423   0.431   0.455   0.464   0.459   0.496   0.518   0.504   0.530   0.524   0.485   0.483   0.498   0.485
   168.40    0.479   0.468   0.445   0.451   0.464   0.444   0.414   0.428   0.457   0.438   0.405   0.428   0.454   0.450   0.467   0.457   0.471   0.469   0.480   0.481   0.482   0.479   0.487   0.496   0.453   0.435   0.455   0.501   0.502   0.493   0.472   0.431   0.421   0.431   0.436   0.424   0.410   0.459   0.482   0.475   0.502   0.520   0.500   0.489   0.462   0.489   0.475   0.469   0.442   0.429   0.424   0.403   0.402   0.426   0.436   0.425   0.420   0.378   0.382   0.377   0.396   0.400   0.411   0.407   0.396   0.447   0.437   0.421   0.421   0.417   0.451   0.474   0.445   0.447   0.460   0.495   0.518   0.513   0.499   0.487   0.510   0.487   0.487   0.490   0.517   0.465   0.450   0.487   0.487   0.530   0.588   0.543   0.543   0.567   0.566   0.555   0.522   0.475   0.500   0.516   0.546   0.561   0.541   0.553   0.558   0.523   0.531   0.507   0.485   0.472   0.481   0.479   0.468   0.475   0.471   0.442   0.456   0.453   0.446   0.457   0.445   0.474   0.449   0.454   0.451   0.494   0.512   0.510   0.508   0.474   0.458   0.458   0.468   0.446   0.453   0.436   0.463   0.447   0.443   0.415   0.429   0.409   0.416   0.418   0.420   0.431   0.426   0.423   0.439   0.458   0.434   0.411   0.377   0.382   0.369   0.419   0.434   0.467   0.438   0.428   0.443   0.438   0.428   0.447   0.471   0.493   0.470   0.496   0.481   0.458   0.460   0.466   0.485   0.508   0.504   0.539   0.498   0.452   0.428   0.407   0.428   0.479   0.502   0.476   0.491   0.501   0.487   0.532   0.522   0.446   0.454   0.487   0.474
   159.10    0.466   0.474   0.440   0.451   0.440   0.434   0.424   0.418   0.449   0.456   0.445   0.448   0.472   0.492   0.459   0.476   0.479   0.506   0.509   0.510   0.501   0.507   0.463   0.486   0.448   0.442   0.450   0.475   0.501   0.484   0.455   0.447   0.428   0.429   0.406   0.420   0.435   0.455   0.485   0.511   0.524   0.515   0.486   0.478   0.496   0.494   0.450   0.458   0.471   0.449   0.460   0.424   0.414   0.377   0.423   0.420   0.399   0.379   0.411   0.427   0.437   0.440   0.438   0.454   0.473   0.480   0.469   0.447   0.454   0.441   0.444   0.464   0.474   0.446   0.479   0.484   0.508   0.537   0.535   0.489   0.478   0.502   0.496   0.494   0.514   0.500   0.445   0.467   0.523   0.537   0.566   0.559   0.555   0.571   0.556   0.584   0.550   0.513   0.468   0.488   0.533   0.551   0.554   0.590   0.577   0.547   0.503   0.498   0.486   0.451   0.467   0.452   0.431   0.447   0.443   0.444   0.446   0.446   0.437   0.440   0.423   0.425   0.448   0.429   0.410   0.469   0.501   0.481   0.510   0.474   0.442   0.425   0.451   0.451   0.449   0.427   0.457   0.433   0.439   0.431   0.426   0.407   0.404   0.424   0.416   0.412   0.455   0.444   0.442   0.433   0.461   0.434   0.395   0.368   0.372   0.384   0.428   0.465   0.463   0.434   0.424   0.434   0.453   0.460   0.463   0.451   0.449   0.470   0.492   0.453   0.452   0.510   0.501   0.497   0.526   0.549   0.516   0.466   0.432   0.451   0.447   0.485   0.490   0.504   0.503   0.501   0.507   0.512   0.460   0.465   0.461   0.461   0.469
   149.80    0.487   0.457   0.445   0.427   0.443   0.419   0.391   0.427   0.438   0.472   0.481   0.473   0.471   0.505   0.497   0.484   0.520   0.509   0.504   0.508   0.492   0.502   0.486   0.501   0.455   0.446   0.473   0.475   0.485   0.448   0.446   0.433   0.411   0.429   0.407   0.432   0.396   0.465   0.471   0.487   0.468   0.457   0.450   0.448   0.456   0.476   0.481   0.469   0.488   0.419   0.457   0.476   0.430   0.399   0.395   0.414   0.423   0.407   0.424   0.477   0.436   0.452   0.466   0.476   0.485   0.486   0.492   0.471   0.427   0.451   0.478   0.500   0.473   0.457   0.483   0.493   0.492   0.520   0.515   0.489   0.481   0.524   0.534   0.517   0.517   0.521   0.461   0.465   0.524   0.548   0.557   0.559   0.572   0.595   0.619   0.614   0.579   0.537   0.511   0.540   0.537   0.549   0.555   0.559   0.548   0.545   0.523   0.473   0.463   0.450   0.435   0.420   0.398   0.404   0.438   0.438   0.444   0.452   0.450   0.463   0.419   0.408   0.397   0.397   0.399   0.445   0.465   0.486   0.475   0.452   0.410   0.393   0.425   0.426   0.441   0.455   0.449   0.450   0.446   0.440   0.449   0.436   0.417   0.430   0.442   0.434   0.478   0.456   0.454   0.456   0.453   0.428   0.389   0.403   0.409   0.447   0.430   0.439   0.442   0.434   0.453   0.443   0.427   0.457   0.458   0.447   0.452   0.442   0.442   0.415   0.434   0.477   0.493   0.524   0.514   0.508   0.517   0.488   0.453   0.454   0.447   0.450   0.469   0.479   0.526   0.496   0.506   0.491   0.497   0.497   0.462   0.457   0.479
   140.50    0.459   0.452   0.444   0.451   0.468   0.443   0.451   0.436   0.453   0.451   0.471   0.468   0.457   0.495   0.509   0.476   0.515   0.508   0.489   0.504   0.484   0.479   0.491   0.480   0.477   0.467   0.449   0.448   0.452   0.454   0.449   0.460   0.450   0.430   0.428   0.401   0.398   0.428   0.423   0.418   0.398   0.423   0.416   0.420   0.461   0.474   0.457   0.446   0.448   0.442   0.470   0.460   0.437   0.409   0.407   0.442   0.441   0.435   0.452   0.463   0.456   0.450   0.467   0.460   0.447   0.479   0.448   0.430   0.438   0.440   0.462   0.478   0.489   0.453   0.483   0.492   0.496   0.486   0.515   0.497   0.527   0.516   0.500   0.528   0.549   0.521   0.486   0.492   0.518   0.530   0.576   0.578   0.612   0.622   0.632   0.614   0.569   0.552   0.498   0.514   0.526   0.567   0.579   0.531   0.534   0.538   0.514   0.500   0.498   0.449   0.448   0.452   0.395   0.385   0.386   0.423   0.438   0.425   0.418   0.425   0.429   0.397   0.387   0.381   0.401   0.457   0.466   0.479   0.473   0.471   0.419   0.426   0.430   0.406   0.406   0.459   0.495   0.482   0.481   0.480   0.476   0.452   0.471   0.450   0.452   0.454   0.513   0.501   0.482   0.486   0.452   0.477   0.446   0.477   0.471   0.466   0.464   0.461   0.471   0.426   0.440   0.419   0.429   0.458   0.454   0.441   0.433   0.397   0.399   0.428   0.413   0.457   0.498   0.531   0.549   0.517   0.517   0.504   0.460   0.467   0.462   0.453   0.471   0.495   0.532   0.547   0.500   0.497   0.496   0.510   0.504   0.484   0.529
   131.20    0.456   0.448   0.466   0.465   0.479   0.463   0.458   0.484   0.429   0.444   0.460   0.441   0.444   0.461   0.487   0.463   0.492   0.505   0.515   0.477   0.474   0.472   0.504   0.494   0.504   0.479   0.466   0.421   0.445   0.413   0.430   0.432   0.420   0.431   0.429   0.397   0.399   0.397   0.415   0.389   0.397   0.401   0.422   0.404   0.420   0.437   0.430   0.400   0.438   0.449   0.476   0.443   0.434   0.435   0.446   0.466   0.468   0.469   0.489   0.482   0.475   0.467   0.471   0.440   0.439   0.472   0.438   0.437   0.438   0.433   0.464   0.478   0.450   0.465   0.504   0.464   0.490   0.519   0.505   0.504   0.473   0.503   0.484   0.512   0.510   0.547   0.484   0.494   0.513   0.560   0.588   0.601   0.631   0.630   0.645   0.622   0.581   0.538   0.528   0.560   0.535   0.544   0.530   0.563   0.525   0.501   0.521   0.539   0.516   0.461   0.419   0.438   0.424   0.409   0.391   0.416   0.401   0.418   0.419   0.438   0.425   0.411   0.373   0.403   0.410   0.454   0.456   0.461   0.437   0.445   0.415   0.404   0.434   0.393   0.407   0.438   0.470   0.471   0.474   0.484   0.463   0.489   0.482   0.489   0.501   0.497   0.534   0.528   0.496   0.479   0.504   0.485   0.465   0.473   0.494   0.471   0.492   0.489   0.438   0.432   0.439   0.429   0.433   0.456   0.470   0.446   0.442   0.433   0.443   0.411   0.430   0.467   0.471   0.498   0.524   0.523   0.521   0.503   0.494   0.467   0.447   0.467   0.484   0.500   0.467   0.503   0.493   0.492   0.480   0.487   0.470   0.497   0.507
   121.90    0.479   0.503   0.479   0.491   0.480   0.476   0.470   0.459   0.460   0.473   0.465   0.454   0.470   0.457   0.467   0.463   0.496   0.488   0.462   0.480   0.469   0.470   0.470   0.494   0.510   0.485   0.477   0.420   0.421   0.393   0.388   0.399   0.394   0.412   0.423   0.411   0.401   0.414   0.402   0.401   0.397   0.422   0.419   0.391   0.414   0.425   0.402   0.412   0.431   0.417   0.444   0.435   0.443   0.461   0.469   0.470   0.477   0.475   0.484   0.491   0.497   0.481   0.462   0.428   0.457   0.498   0.463   0.431   0.434   0.447   0.456   0.486   0.503   0.460   0.476   0.480   0.483   0.503   0.520   0.476   0.481   0.531   0.498   0.496   0.501   0.519   0.533   0.537   0.562   0.610   0.621   0.621   0.609   0.614   0.640   0.600   0.581   0.538   0.534   0.557   0.555   0.540   0.545   0.518   0.555   0.543   0.568   0.568   0.524   0.492   0.443   0.420   0.415   0.397   0.422   0.422   0.401   0.404   0.424   0.402   0.441   0.421   0.387   0.408   0.421   0.458   0.428   0.454   0.451   0.485   0.457   0.426   0.417   0.419   0.433   0.455   0.461   0.478   0.472   0.485   0.459   0.475   0.474   0.490   0.506   0.510   0.503   0.532   0.509   0.491   0.498   0.507   0.476   0.483   0.468   0.485   0.515   0.514   0.469   0.466   0.462   0.462   0.447   0.432   0.421   0.453   0.472   0.446   0.424   0.403   0.403   0.453   0.484   0.476   0.510   0.516   0.547   0.523   0.507   0.472   0.454   0.440   0.469   0.477   0.473   0.468   0.487   0.492   0.505   0.495   0.479   0.539   0.575
   112.60    0.459   0.492   0.512   0.487   0.475   0.446   0.464   0.471   0.419   0.459   0.480   0.478   0.481   0.444   0.473   0.465   0.474   0.487   0.479   0.465   0.440   0.446   0.453   0.471   0.498   0.482   0.481   0.467   0.422   0.392   0.400   0.387   0.413   0.403   0.379   0.399   0.401   0.397   0.374   0.400   0.409   0.380   0.401   0.395   0.433   0.422   0.401   0.382   0.380   0.425   0.432   0.449   0.433   0.445   0.459   0.461   0.483   0.466   0.439   0.456   0.474   0.501   0.474   0.473   0.476   0.486   0.460   0.451   0.433   0.432   0.447   0.463   0.478   0.472   0.473   0.504   0.495   0.479   0.453   0.466   0.510   0.538   0.536   0.491   0.537   0.567   0.583   0.568   0.580   0.632   0.664   0.660   0.659   0.638   0.619   0.597   0.572   0.530   0.585   0.560   0.567   0.602   0.568   0.554   0.536   0.581   0.596   0.569   0.562   0.502   0.496   0.431   0.446   0.405   0.423   0.394   0.408   0.424   0.456   0.423   0.440   0.442   0.409   0.412   0.436   0.439   0.433   0.444   0.450   0.428   0.450   0.446   0.422   0.429   0.435   0.432   0.452   0.448   0.486   0.476   0.470   0.453   0.484   0.495   0.483   0.506   0.508   0.497   0.510   0.517   0.511   0.540   0.514   0.542   0.513   0.533   0.510   0.489   0.473   0.476   0.457   0.458   0.422   0.433   0.417   0.431   0.466   0.469   0.389   0.422   0.431   0.471   0.478   0.481   0.496   0.526   0.536   0.523   0.480   0.473   0.423   0.466   0.473   0.475   0.453   0.442   0.497   0.496   0.505   0.498   0.511   0.547   0.584
   103.30    0.448   0.472   0.473   0.459   0.485   0.476   0.490   0.444   0.449   0.470   0.475   0.466   0.437   0.440   0.456   0.448   0.456   0.466   0.447   0.457   0.450   0.426   0.415   0.485   0.484   0.482   0.481   0.436   0.425   0.391   0.380   0.403   0.405   0.368   0.398   0.406   0.404   0.419   0.394   0.425   0.423   0.423   0.452   0.449   0.434   0.403   0.410   0.410   0.434   0.442   0.469   0.450   0.429   0.434   0.445   0.454   0.446   0.445   0.454   0.442   0.482   0.502   0.510   0.494   0.513   0.478   0.442   0.457   0.448   0.443   0.441   0.481   0.508   0.490   0.497   0.480   0.479   0.437   0.465   0.467   0.514   0.526   0.546   0.544   0.542   0.560   0.577   0.585   0.592   0.635   0.652   0.660   0.644   0.649   0.610   0.609   0.551   0.559   0.553   0.564   0.594   0.577   0.554   0.550   0.539   0.566   0.572   0.544   0.555   0.524   0.514   0.490   0.447   0.420   0.428   0.439   0.420   0.432   0.447   0.435   0.456   0.473   0.436   0.467   0.466   0.454   0.427   0.431   0.420   0.444   0.460   0.465   0.444   0.445   0.424   0.459   0.468   0.452   0.475   0.510   0.460   0.448   0.467   0.499   0.493   0.503   0.493   0.460   0.504   0.511   0.553   0.537   0.538   0.549   0.547   0.509   0.513   0.483   0.487   0.464   0.450   0.436   0.423   0.386   0.396   0.446   0.443   0.462   0.419   0.400   0.448   0.466   0.492   0.484   0.519   0.509   0.545   0.520   0.493   0.474   0.431   0.448   0.459   0.463   0.457   0.459   0.462   0.502   0.478   0.508   0.520   0.523   0.557
    94.00    0.406   0.453   0.481   0.481   0.487   0.501   0.476   0.468   0.468   0.462   0.471   0.450   0.437   0.446   0.466   0.472   0.468   0.426   0.426   0.419   0.435   0.395   0.424   0.468   0.444   0.446   0.459   0.456   0.407   0.390   0.374   0.406   0.399   0.403   0.408   0.431   0.419   0.408   0.411   0.408   0.414   0.409   0.442   0.406   0.404   0.431   0.416   0.442   0.470   0.461   0.456   0.473   0.437   0.437   0.420   0.420   0.415   0.451   0.429   0.431   0.465   0.492   0.504   0.495   0.481   0.471   0.437   0.438   0.442   0.445   0.464   0.459   0.468   0.470   0.484   0.463   0.457   0.452   0.496   0.502   0.503   0.543   0.553   0.546   0.581   0.610   0.598   0.642   0.664   0.646   0.685   0.691   0.634   0.626   0.619   0.577   0.571   0.572   0.548   0.512   0.508   0.520   0.528   0.530   0.550   0.575   0.547   0.538   0.528   0.535   0.524   0.496   0.479   0.481   0.500   0.471   0.447   0.462   0.446   0.447   0.459   0.476   0.454   0.464   0.455   0.424   0.439   0.432   0.436   0.463   0.450   0.472   0.493   0.471   0.452   0.483   0.484   0.460   0.477   0.487   0.506   0.473   0.448   0.466   0.486   0.506   0.476   0.487   0.498   0.484   0.526   0.535   0.487   0.533   0.530   0.527   0.523   0.524   0.472   0.471   0.446   0.423   0.384   0.405   0.410   0.449   0.475   0.435   0.427   0.431   0.453   0.444   0.465   0.472   0.483   0.512   0.537   0.503   0.499   0.487   0.446   0.424   0.471   0.460   0.478   0.443   0.464   0.465   0.466   0.494   0.532   0.533   0.561
    84.70    0.429   0.438   0.466   0.455   0.476   0.501   0.431   0.467   0.463   0.471   0.446   0.447   0.426   0.440   0.443   0.445   0.446   0.434   0.428   0.405   0.394   0.400   0.397   0.430   0.418   0.429   0.431   0.462   0.450   0.402   0.395   0.400   0.419   0.422   0.401   0.446   0.429   0.413   0.441   0.436   0.396   0.417   0.433   0.425   0.430   0.425   0.444   0.442   0.486   0.482   0.461   0.447   0.452   0.418   0.423   0.436   0.431   0.431   0.430   0.444   0.435   0.451   0.470   0.462   0.435   0.467   0.463   0.411   0.440   0.452   0.452   0.471   0.460   0.471   0.452   0.485   0.483   0.501   0.504   0.507   0.520   0.518   0.520   0.547   0.573   0.642   0.641   0.683   0.667   0.701   0.678   0.683   0.630   0.600   0.592   0.590   0.559   0.576   0.587   0.548   0.538   0.556   0.550   0.532   0.519   0.541   0.534   0.512   0.526   0.500   0.531   0.502   0.513   0.507   0.521   0.509   0.459   0.442   0.424   0.461   0.458   0.446   0.447   0.447   0.415   0.420   0.449   0.453   0.460   0.465   0.477   0.468   0.455   0.490   0.479   0.450   0.452   0.476   0.478   0.474   0.471   0.455   0.448   0.460   0.472   0.484   0.483   0.456   0.477   0.487   0.511   0.483   0.488   0.497   0.486   0.522   0.518   0.516   0.502   0.484   0.424   0.410   0.391   0.382   0.396   0.436   0.421   0.424   0.436   0.419   0.417   0.440   0.477   0.488   0.452   0.464   0.481   0.486   0.480   0.486   0.462   0.451   0.479   0.486   0.441   0.448   0.457   0.460   0.451   0.487   0.502   0.541   0.552
    75.40    0.468   0.435   0.457   0.469   0.486   0.488   0.487   0.452   0.466   0.479   0.470   0.426   0.438   0.411   0.434   0.467   0.442   0.439   0.417   0.380   0.393   0.410   0.432   0.401   0.428   0.410   0.412   0.443   0.440   0.439   0.428   0.399   0.425   0.457   0.429   0.460   0.438   0.468   0.439   0.429   0.406   0.417   0.435   0.439   0.439   0.395   0.412   0.466   0.453   0.460   0.483   0.449   0.448   0.433   0.447   0.442   0.444   0.414   0.402   0.422   0.455   0.437   0.453   0.486   0.471   0.472   0.461   0.430   0.410   0.455   0.431   0.475   0.451   0.461   0.452   0.478   0.478   0.504   0.488   0.499   0.509   0.480   0.519   0.548   0.608   0.638   0.676   0.677   0.686   0.691   0.676   0.633   0.625   0.627   0.609   0.588   0.572   0.580   0.537   0.530   0.527   0.521   0.525   0.526   0.502   0.518   0.531   0.501   0.497   0.480   0.503   0.514   0.503   0.513   0.528   0.501   0.484   0.474   0.471   0.439   0.448   0.425   0.446   0.418   0.411   0.447   0.464   0.459   0.484   0.493   0.465   0.483   0.508   0.495   0.453   0.476   0.449   0.439   0.467   0.478   0.469   0.485   0.455   0.417   0.475   0.490   0.470   0.457   0.444   0.514   0.535   0.497   0.501   0.504   0.526   0.515   0.529   0.509   0.472   0.462   0.447   0.425   0.418   0.419   0.405   0.435   0.445   0.432   0.456   0.433   0.415   0.432   0.439   0.461   0.455   0.469   0.479   0.473   0.481   0.470   0.476   0.477   0.443   0.433   0.429   0.400   0.389   0.401   0.429   0.427   0.465   0.498   0.500
    66.10    0.443   0.435   0.443   0.454   0.475   0.491   0.486   0.485   0.467   0.436   0.445   0.439   0.430   0.412   0.405   0.442   0.457   0.453   0.402   0.367   0.382   0.397   0.416   0.403   0.406   0.400   0.388   0.407   0.430   0.421   0.429   0.448   0.471   0.498   0.470   0.469   0.458   0.449   0.464   0.445   0.448   0.452   0.473   0.439   0.443   0.430   0.431   0.473   0.445   0.466   0.447   0.472   0.447   0.458   0.432   0.429   0.434   0.423   0.400   0.423   0.439   0.452   0.461   0.479   0.483   0.462   0.429   0.405   0.404   0.427   0.431   0.467   0.479   0.473   0.477   0.475   0.492   0.474   0.518   0.525   0.482   0.547   0.521   0.558   0.619   0.616   0.643   0.685   0.671   0.679   0.669   0.669   0.661   0.625   0.622   0.592   0.599   0.576   0.554   0.496   0.508   0.512   0.524   0.502   0.504   0.516   0.534   0.503   0.497   0.492   0.523   0.528   0.537   0.530   0.517   0.515   0.500   0.488   0.478   0.478   0.458   0.435   0.451   0.448   0.457   0.477   0.470   0.464   0.486   0.483   0.461   0.450   0.454   0.485   0.473   0.472   0.471   0.461   0.422   0.416   0.414   0.467   0.477   0.477   0.500   0.491   0.488   0.451   0.503   0.505   0.518   0.477   0.493   0.543   0.554   0.523   0.477   0.452   0.452   0.461   0.441   0.415   0.431   0.403   0.426   0.446   0.445   0.454   0.426   0.446   0.408   0.405   0.449   0.433   0.449   0.450   0.502   0.500   0.476   0.455   0.456   0.482   0.446   0.409   0.392   0.403   0.411   0.406   0.398   0.445   0.461   0.493   0.489
    56.80    0.429   0.411   0.444   0.462   0.441   0.475   0.476   0.484   0.491   0.465   0.442   0.451   0.459   0.437   0.441   0.429   0.453   0.458   0.406   0.407   0.391   0.402   0.404   0.423   0.418   0.372   0.390   0.409   0.431   0.437   0.465   0.479   0.476   0.502   0.519   0.493   0.471   0.480   0.448   0.428   0.447   0.449   0.435   0.466   0.458   0.455   0.444   0.462   0.504   0.481   0.471   0.481   0.446   0.460   0.467   0.479   0.435   0.422   0.409   0.402   0.395   0.434   0.432   0.455   0.455   0.434   0.434   0.415   0.415   0.401   0.438   0.453   0.472   0.444   0.464   0.476   0.483   0.498   0.498   0.501   0.510   0.538   0.578   0.567   0.618   0.627   0.661   0.655   0.641   0.681   0.659   0.652   0.658   0.648   0.593   0.593   0.606   0.591   0.572   0.540   0.544   0.538   0.512   0.501   0.481   0.512   0.529   0.534   0.519   0.482   0.511   0.484   0.515   0.563   0.566   0.520   0.524   0.500   0.474   0.465   0.454   0.456   0.496   0.476   0.445   0.494   0.488   0.476   0.463   0.455   0.436   0.445   0.492   0.492   0.471   0.475   0.456   0.447   0.395   0.366   0.387   0.418   0.434   0.457   0.476   0.489   0.451   0.437   0.462   0.457   0.495   0.455   0.460   0.506   0.541   0.486   0.469   0.450   0.480   0.461   0.418   0.438   0.431   0.407   0.417   0.477   0.467   0.465   0.438   0.461   0.443   0.416   0.448   0.447   0.460   0.479   0.477   0.455   0.453   0.475   0.487   0.500   0.450   0.431   0.421   0.408   0.418   0.394   0.408   0.411   0.432   0.467   0.467
    47.50    0.444   0.486   0.466   0.467   0.441   0.473   0.457   0.461   0.451   0.454   0.493   0.466   0.477   0.433   0.424   0.424   0.458   0.445   0.427   0.434   0.395   0.398   0.430   0.456   0.444   0.390   0.405   0.431   0.447   0.460   0.477   0.474   0.489   0.483   0.535   0.513   0.517   0.496   0.440   0.448   0.437   0.433   0.427   0.429   0.446   0.427   0.453   0.490   0.503   0.502   0.472   0.487   0.485   0.500   0.480   0.456   0.479   0.439   0.419   0.397   0.412   0.418   0.438   0.446   0.465   0.422   0.411   0.457   0.419   0.407   0.439   0.416   0.405   0.409   0.412   0.438   0.463   0.492   0.490   0.517   0.512   0.561   0.611   0.613   0.612   0.605   0.617   0.610   0.599   0.642   0.628   0.627   0.649   0.639   0.594   0.571   0.625   0.613   0.570   0.541   0.541   0.521   0.520   0.545   0.512   0.524   0.514   0.530   0.541   0.517   0.498   0.496   0.492   0.545   0.532   0.498   0.473   0.478   0.498   0.487   0.475   0.464   0.451   0.489   0.511   0.510   0.513   0.471   0.461   0.434   0.449   0.461   0.487   0.488   0.471   0.455   0.437   0.412   0.389   0.381   0.371   0.382   0.420   0.447   0.464   0.436   0.445   0.460   0.479   0.448   0.458   0.442   0.443   0.444   0.504   0.483   0.453   0.480   0.494   0.418   0.415   0.419   0.443   0.425   0.416   0.475   0.487   0.435   0.451   0.471   0.449   0.444   0.461   0.466   0.461   0.451   0.474   0.461   0.457   0.478   0.485   0.482   0.473   0.468   0.451   0.399   0.383   0.389   0.423   0.432   0.430   0.437   0.457
    38.20    0.444   0.478   0.481   0.479   0.487   0.478   0.448   0.466   0.453   0.431   0.453   0.470   0.454   0.428   0.439   0.407   0.419   0.445   0.448   0.433   0.434   0.420   0.439   0.462   0.453   0.425   0.420   0.431   0.455   0.485   0.490   0.478   0.484   0.470   0.484   0.493   0.485   0.461   0.477   0.475   0.461   0.428   0.422   0.416   0.412   0.425   0.440   0.479   0.473   0.489   0.457   0.491   0.480   0.487   0.465   0.477   0.459   0.439   0.427   0.415   0.421   0.438   0.432   0.422   0.442   0.440   0.421   0.449   0.436   0.416   0.435   0.381   0.419   0.416   0.432   0.454   0.436   0.488   0.525   0.506   0.548   0.567   0.590   0.582   0.584   0.586   0.569   0.593   0.588   0.642   0.636   0.622   0.639   0.654   0.637   0.602   0.612   0.600   0.604   0.542   0.521   0.500   0.516   0.515   0.540   0.538   0.548   0.543   0.577   0.545   0.530   0.568   0.539   0.550   0.520   0.484   0.493   0.509   0.491   0.476   0.498   0.500   0.469   0.499   0.506   0.516   0.521   0.522   0.493   0.454   0.459   0.468   0.469   0.447   0.457   0.446   0.422   0.397   0.384   0.400   0.402   0.408   0.462   0.445   0.446   0.440   0.453   0.477   0.470   0.477   0.446   0.442   0.430   0.468   0.479   0.443   0.454   0.455   0.454   0.455   0.421   0.430   0.439   0.436   0.436   0.488   0.511   0.473   0.482   0.465   0.445   0.453   0.435   0.445   0.446   0.460   0.457   0.440   0.459   0.478   0.467   0.493   0.515   0.488   0.455   0.412   0.425   0.419   0.403   0.415   0.401   0.395   0.458
    28.90    0.468   0.456   0.476   0.461   0.506   0.506   0.459   0.453   0.413   0.437   0.454   0.456   0.465   0.455   0.470   0.453   0.423   0.445   0.470   0.441   0.441   0.426   0.430   0.464   0.449   0.441   0.456   0.441   0.473   0.489   0.510   0.507   0.525   0.488   0.482   0.480   0.498   0.496   0.515   0.488   0.479   0.438   0.434   0.445   0.428   0.426   0.426   0.442   0.430   0.462   0.469   0.483   0.500   0.444   0.458   0.472   0.481   0.450   0.455   0.458   0.415   0.434   0.422   0.420   0.437   0.422   0.435   0.444   0.415   0.410   0.405   0.424   0.428   0.449   0.453   0.472   0.447   0.452   0.509   0.510   0.519   0.563   0.577   0.627   0.590   0.573   0.575   0.607   0.593   0.616   0.614   0.622   0.647   0.644   0.628   0.619   0.613   0.624   0.608   0.563   0.514   0.553   0.532   0.559   0.536   0.545   0.548   0.548   0.578   0.585   0.533   0.554   0.524   0.522   0.527   0.494   0.510   0.483   0.461   0.449   0.462   0.481   0.492   0.509   0.504   0.492   0.519   0.536   0.496   0.436   0.432   0.455   0.439   0.426   0.426   0.422   0.416   0.409   0.425   0.425   0.446   0.477   0.451   0.455   0.452   0.462   0.452   0.461   0.462   0.458   0.426   0.443   0.454   0.458   0.459   0.480   0.451   0.448   0.458   0.471   0.463   0.474   0.442   0.432   0.460   0.471   0.477   0.494   0.443   0.472   0.459   0.443   0.431   0.432   0.477   0.464   0.438   0.435   0.447   0.466   0.482   0.478   0.477   0.501   0.445   0.430   0.447   0.404   0.407   0.428   0.408   0.408   0.451
    19.60    0.480   0.484   0.509   0.499   0.514   0.494   0.472   0.437   0.418   0.459   0.464   0.481   0.444   0.426   0.452   0.445   0.449   0.442   0.447   0.459   0.472   0.449   0.449   0.471   0.458   0.443   0.456   0.443   0.481   0.502   0.504   0.507   0.512   0.507   0.490   0.473   0.493   0.508   0.473   0.490   0.482   0.493   0.485   0.477   0.499   0.442   0.459   0.458   0.441   0.467   0.505   0.491   0.496   0.469   0.430   0.473   0.462   0.453   0.467   0.465   0.436   0.430   0.434   0.445   0.462   0.434   0.429   0.428   0.391   0.405   0.430   0.443   0.437   0.455   0.463   0.484   0.439   0.493   0.512   0.525   0.532   0.557   0.579   0.599   0.565   0.544   0.581   0.582   0.593   0.632   0.593   0.592   0.601   0.580   0.590   0.576   0.584   0.587   0.582   0.565   0.534   0.517   0.534   0.530   0.526   0.514   0.546   0.563   0.563   0.544   0.560   0.508   0.509   0.516   0.519   0.464   0.469   0.487   0.434   0.457   0.448   0.494   0.483   0.473   0.500   0.503   0.528   0.525   0.481   0.462   0.444   0.428   0.411   0.415   0.404   0.390   0.410   0.422   0.441   0.408   0.456   0.450   0.457   0.433   0.464   0.488   0.489   0.450   0.467   0.478   0.481   0.468   0.450   0.448   0.472   0.468   0.439   0.441   0.433   0.460   0.461   0.465   0.439   0.481   0.493   0.464   0.482   0.468   0.452   0.467   0.466   0.467   0.455   0.449   0.440   0.435   0.432   0.435   0.437   0.445   0.458   0.452   0.457   0.484   0.427   0.434   0.442   0.433   0.424   0.416   0.418   0.443   0.439
    10.30    0.482   0.466   0.504   0.515   0.505   0.450   0.457   0.435   0.442   0.440   0.449   0.459   0.470   0.476   0.450   0.465   0.429   0.447   0.439   0.453   0.466   0.472   0.489   0.460   0.450   0.469   0.428   0.452   0.466   0.471   0.481   0.481   0.491   0.484   0.470   0.496   0.497   0.468   0.463   0.442   0.474   0.474   0.485   0.451   0.458   0.442   0.433   0.434   0.455   0.496   0.512   0.513   0.482   0.463   0.442   0.444   0.455   0.454   0.466   0.464   0.445   0.461   0.450   0.458   0.462   0.435   0.420   0.418   0.424   0.420   0.448   0.431   0.441   0.463   0.472   0.480   0.510   0.521   0.511   0.547   0.569   0.607   0.611   0.607   0.617   0.572   0.582   0.558   0.534   0.554   0.565   0.600   0.583   0.536   0.554   0.583   0.549   0.554   0.556   0.515   0.501   0.488   0.487   0.491   0.540   0.545   0.560   0.550   0.565   0.536   0.522   0.500   0.477   0.447   0.447   0.435   0.470   0.459   0.452   0.460   0.477   0.473   0.478   0.473   0.469   0.484   0.487   0.475   0.479   0.476   0.425   0.432   0.413   0.424   0.419   0.413   0.396   0.428   0.452   0.437   0.445   0.435   0.452   0.458   0.463   0.483   0.470   0.459   0.468   0.461   0.472   0.477   0.488   0.464   0.455   0.476   0.447   0.414   0.418   0.433   0.495   0.463   0.477   0.481   0.463   0.472   0.489   0.483   0.483   0.475   0.521   0.460   0.466   0.431   0.451   0.445   0.439   0.460   0.463   0.432   0.449   0.481   0.474   0.493   0.451   0.443   0.441   0.432   0.444   0.441   0.436   0.442   0.462
     1.00    0.477   0.499   0.493   0.509   0.508   0.452   0.459   0.443   0.456   0.469   0.461   0.451   0.448   0.457   0.419   0.451   0.431   0.443   0.455   0.446   0.493   0.434   0.459   0.499   0.464   0.471   0.458   0.469   0.476   0.483   0.463   0.502   0.487   0.500   0.492   0.490   0.474   0.480   0.444   0.475   0.484   0.480   0.462   0.456   0.471   0.439   0.433   0.480   0.498   0.535   0.498   0.493   0.495   0.456   0.435   0.432   0.450   0.433   0.430   0.453   0.448   0.446   0.476   0.498   0.463   0.402   0.418   0.387   0.411   0.406   0.415   0.447   0.450   0.437   0.449   0.477   0.509   0.521   0.533   0.556   0.588   0.581   0.575   0.599   0.584   0.599   0.547   0.538   0.537   0.521   0.509   0.556   0.539   0.536   0.522   0.513   0.526   0.552   0.535   0.543   0.496   0.488   0.497   0.505   0.492   0.501   0.525   0.535   0.509   0.507   0.491   0.431   0.439   0.432   0.414   0.402   0.448   0.464   0.468   0.461   0.460   0.474   0.466   0.499   0.502   0.494   0.513   0.474   0.486   0.463   0.442   0.427   0.409   0.421   0.431   0.440   0.413   0.396   0.414   0.419   0.413   0.395   0.420   0.468   0.497   0.475   0.468   0.461   0.439   0.439   0.468   0.462   0.458   0.484   0.464   0.447   0.425   0.426   0.451   0.467   0.499   0.508   0.495   0.455   0.465   0.491   0.477   0.479   0.487   0.489   0.479   0.471   0.446   0.448   0.451   0.462   0.440   0.440   0.446   0.468   0.452   0.475   0.479   0.461   0.463   0.451   0.417   0.443   0.449   0.451   0.461   0.470   0.488

   Height   Standard deviation at grid points for the v component:
   354.40    0.394   0.393   0.398   0.389   0.365   0.372   0.362   0.337   0.335   0.341   0.356   0.330   0.351   0.357   0.359   0.357   0.357   0.340   0.350   0.357   0.372   0.371   0.348   0.386   0.403   0.399   0.408   0.395   0.366   0.375   0.365   0.365   0.353   0.378   0.385   0.361   0.366   0.387   0.376   0.385   0.384   0.370   0.376   0.395   0.393   0.412   0.410   0.386   0.406   0.422   0.419   0.418   0.404   0.410   0.397   0.413   0.429   0.438   0.435   0.449   0.442   0.414   0.391   0.392   0.392   0.383   0.367   0.359   0.363   0.376   0.398   0.395   0.393   0.372   0.372   0.390   0.387   0.362   0.375   0.397   0.375   0.417   0.422   0.414   0.409   0.414   0.401   0.417   0.395   0.392   0.378   0.360   0.358   0.360   0.386   0.399   0.397   0.365   0.375   0.380   0.380   0.398   0.414   0.401   0.408   0.401   0.411   0.409   0.395   0.396   0.395   0.376   0.360   0.378   0.385   0.377   0.378   0.378   0.370   0.389   0.397   0.389   0.407   0.405   0.386   0.394   0.394   0.418   0.415   0.426   0.431   0.448   0.437   0.437   0.420   0.428   0.412   0.405   0.397   0.399   0.406   0.397   0.388   0.394   0.382   0.388   0.408   0.425   0.431   0.408   0.426   0.415   0.408   0.405   0.400   0.405   0.407   0.416   0.395   0.392   0.385   0.370   0.345   0.355   0.360   0.372   0.378   0.378   0.346   0.371   0.354   0.358   0.378   0.393   0.411   0.426   0.425   0.416   0.404   0.407   0.417   0.414   0.406   0.383   0.373   0.385   0.365   0.363   0.364   0.389   0.383   0.373   0.394
   345.10    0.390   0.393   0.397   0.393   0.388   0.390   0.371   0.351   0.344   0.365   0.368   0.368   0.366   0.356   0.364   0.368   0.367   0.344   0.356   0.356   0.376   0.393   0.378   0.383   0.412   0.414   0.414   0.418   0.381   0.359   0.369   0.355   0.358   0.352   0.348   0.359   0.377   0.368   0.362   0.362   0.382   0.424   0.412   0.418   0.434   0.442   0.421   0.403   0.428   0.421   0.428   0.420   0.404   0.402   0.427   0.421   0.423   0.434   0.418   0.429   0.409   0.413   0.405   0.391   0.385   0.367   0.354   0.353   0.356   0.388   0.399   0.382   0.397   0.392   0.371   0.376   0.383   0.375   0.388   0.403   0.381   0.384   0.413   0.409   0.417   0.415   0.395   0.398   0.379   0.411   0.377   0.379   0.376   0.361   0.381   0.389   0.405   0.410   0.364   0.361   0.377   0.394   0.406   0.418   0.435   0.424   0.429   0.424   0.406   0.397   0.380   0.368   0.365   0.366   0.382   0.373   0.367   0.371   0.377   0.384   0.374   0.393   0.410   0.410   0.396   0.411   0.409   0.408   0.423   0.452   0.447   0.444   0.435   0.414   0.403   0.406   0.406   0.423   0.405   0.413   0.412   0.424   0.399   0.386   0.374   0.370   0.395   0.430   0.409   0.420   0.407   0.423   0.409   0.396   0.409   0.388   0.417   0.398   0.399   0.401   0.412   0.380   0.366   0.355   0.376   0.382   0.364   0.366   0.376   0.372   0.369   0.402   0.386   0.384   0.402   0.415   0.422   0.409   0.406   0.412   0.400   0.405   0.418   0.389   0.365   0.379   0.373   0.392   0.366   0.387   0.390   0.383   0.384
   335.80    0.378   0.385   0.391   0.384   0.370   0.377   0.369   0.362   0.357   0.376   0.373   0.379   0.372   0.369   0.375   0.378   0.370   0.363   0.367   0.379   0.408   0.388   0.398   0.388   0.403   0.395   0.384   0.377   0.380   0.355   0.365   0.379   0.367   0.353   0.345   0.354   0.351   0.358   0.367   0.359   0.391   0.423   0.412   0.418   0.418   0.424   0.419   0.434   0.425   0.413   0.409   0.405   0.395   0.406   0.416   0.414   0.435   0.427   0.431   0.437   0.420   0.418   0.428   0.422   0.385   0.379   0.367   0.381   0.366   0.404   0.401   0.378   0.418   0.391   0.368   0.381   0.373   0.397   0.404   0.388   0.380   0.369   0.384   0.383   0.381   0.365   0.392   0.388   0.390   0.402   0.402   0.403   0.406   0.389   0.370   0.405   0.412   0.380   0.384   0.366   0.395   0.402   0.409   0.429   0.423   0.422   0.400   0.389   0.382   0.384   0.385   0.395   0.377   0.394   0.395   0.387   0.381   0.367   0.395   0.383   0.379   0.404   0.409   0.398   0.413   0.389   0.389   0.413   0.419   0.422   0.422   0.403   0.427   0.416   0.406   0.406   0.394   0.406   0.395   0.408   0.420   0.419   0.416   0.394   0.377   0.387   0.400   0.399   0.400   0.404   0.405   0.419   0.421   0.404   0.381   0.398   0.381   0.391   0.386   0.397   0.414   0.366   0.343   0.363   0.374   0.381   0.377   0.386   0.393   0.396   0.390   0.387   0.385   0.389   0.409   0.412   0.419   0.409   0.412   0.394   0.390   0.400   0.383   0.395   0.389   0.385   0.366   0.379   0.381   0.378   0.382   0.366   0.370
   326.50    0.398   0.391   0.393   0.377   0.384   0.361   0.353   0.348   0.342   0.364   0.375   0.372   0.378   0.390   0.377   0.389   0.365   0.350   0.367   0.384   0.387   0.410   0.403   0.399   0.404   0.421   0.406   0.386   0.377   0.355   0.357   0.371   0.365   0.375   0.364   0.368   0.358   0.359   0.351   0.355   0.380   0.401   0.400   0.416   0.409   0.420   0.430   0.426   0.405   0.411   0.381   0.385   0.395   0.409   0.405   0.417   0.423   0.426   0.423   0.437   0.429   0.431   0.426   0.415   0.404   0.393   0.371   0.361   0.375   0.388   0.390   0.393   0.406   0.397   0.374   0.380   0.380   0.390   0.395   0.398   0.367   0.364   0.364   0.371   0.386   0.385   0.371   0.390   0.412   0.409   0.412   0.386   0.400   0.386   0.376   0.374   0.395   0.368   0.370   0.359   0.384   0.400   0.415   0.408   0.397   0.389   0.368   0.369   0.365   0.379   0.392   0.408   0.381   0.403   0.409   0.400   0.384   0.381   0.371   0.386   0.389   0.386   0.396   0.404   0.416   0.397   0.404   0.426   0.411   0.402   0.401   0.386   0.394   0.424   0.402   0.399   0.402   0.395   0.386   0.407   0.386   0.403   0.390   0.399   0.376   0.385   0.399   0.415   0.432   0.427   0.415   0.410   0.418   0.413   0.393   0.379   0.387   0.378   0.380   0.392   0.399   0.389   0.363   0.356   0.360   0.364   0.372   0.388   0.385   0.403   0.414   0.399   0.409   0.418   0.401   0.405   0.423   0.419   0.421   0.378   0.386   0.381   0.393   0.397   0.393   0.374   0.358   0.356   0.363   0.383   0.382   0.367   0.368
[...]
   103.30    0.233   0.240   0.238   0.241   0.235   0.231   0.234   0.226   0.225   0.235   0.238   0.238   0.236   0.233   0.231   0.237   0.240   0.238   0.241   0.242   0.241   0.236   0.241   0.241   0.227   0.240   0.241   0.241   0.241   0.250   0.250   0.244   0.248   0.252   0.256   0.252   0.262   0.255   0.248   0.234   0.238   0.242   0.244   0.248   0.242   0.244   0.243   0.238   0.242   0.237   0.236   0.231   0.245   0.238   0.248   0.242   0.236   0.242   0.241   0.230   0.237   0.245   0.237   0.231   0.236   0.236   0.234   0.242   0.245   0.236   0.236   0.233   0.236   0.243   0.238   0.227   0.227   0.233   0.239   0.236   0.238   0.244   0.236   0.243   0.230   0.229   0.227   0.230   0.233   0.223   0.235   0.241   0.243   0.243   0.239   0.234   0.230   0.232   0.239   0.240   0.242   0.237   0.234   0.239   0.239   0.239   0.238   0.229   0.225   0.227   0.234   0.233   0.237   0.238   0.242   0.250   0.239   0.241   0.236   0.231   0.229   0.232   0.228   0.230   0.230   0.233   0.233   0.230   0.221   0.225   0.235   0.227   0.232   0.235   0.232   0.233   0.242   0.238   0.230   0.239   0.234   0.228   0.231   0.227   0.230   0.227   0.235   0.239   0.240   0.238   0.245   0.243   0.243   0.239   0.240   0.237   0.226   0.230   0.231   0.237   0.231   0.230   0.229   0.233   0.237   0.234   0.228   0.231   0.229   0.233   0.235   0.226   0.231   0.230   0.234   0.235   0.234   0.237   0.234   0.240   0.236   0.239   0.236   0.238   0.238   0.244   0.238   0.237   0.236   0.225   0.236   0.242   0.240
    94.00    0.222   0.226   0.241   0.242   0.230   0.235   0.230   0.227   0.228   0.237   0.231   0.237   0.236   0.242   0.230   0.225   0.232   0.231   0.230   0.239   0.242   0.239   0.246   0.238   0.243   0.248   0.241   0.238   0.245   0.247   0.249   0.246   0.248   0.248   0.253   0.249   0.254   0.258   0.246   0.238   0.245   0.243   0.238   0.249   0.249   0.255   0.250   0.250   0.239   0.241   0.238   0.239   0.245   0.240   0.235   0.235   0.240   0.242   0.238   0.230   0.234   0.234   0.240   0.234   0.236   0.237   0.233   0.239   0.243   0.234   0.236   0.243   0.241   0.233   0.230   0.234   0.229   0.235   0.244   0.240   0.246   0.252   0.249   0.238   0.238   0.228   0.224   0.230   0.238   0.226   0.231   0.236   0.236   0.244   0.237   0.228   0.227   0.231   0.240   0.238   0.236   0.242   0.249   0.240   0.244   0.238   0.239   0.223   0.235   0.232   0.228   0.228   0.232   0.240   0.245   0.238   0.245   0.242   0.229   0.231   0.223   0.220   0.230   0.231   0.232   0.233   0.237   0.227   0.223   0.228   0.224   0.226   0.229   0.230   0.231   0.228   0.235   0.231   0.243   0.242   0.239   0.231   0.227   0.239   0.242   0.231   0.236   0.232   0.236   0.244   0.244   0.236   0.238   0.236   0.234   0.233   0.233   0.235   0.240   0.238   0.239   0.232   0.237   0.232   0.232   0.229   0.227   0.223   0.228   0.225   0.227   0.225   0.237   0.227   0.226   0.235   0.229   0.229   0.241   0.230   0.231   0.239   0.237   0.236   0.233   0.234   0.236   0.235   0.229   0.236   0.243   0.248   0.239
    84.70    0.226   0.223   0.240   0.240   0.236   0.231   0.232   0.231   0.240   0.239   0.238   0.236   0.234   0.236   0.232   0.235   0.227   0.231   0.235   0.234   0.236   0.233   0.234   0.240   0.242   0.251   0.252   0.239   0.233   0.243   0.250   0.253   0.247   0.251   0.246   0.250   0.246   0.249   0.251   0.258   0.255   0.252   0.243   0.248   0.251   0.245   0.250   0.255   0.253   0.245   0.240   0.244   0.244   0.240   0.238   0.235   0.234   0.231   0.232   0.227   0.226   0.231   0.237   0.243   0.237   0.238   0.250   0.246   0.241   0.245   0.243   0.241   0.231   0.234   0.231   0.227   0.231   0.240   0.238   0.243   0.248   0.253   0.248   0.240   0.238   0.237   0.233   0.231   0.238   0.237   0.233   0.237   0.239   0.241   0.241   0.238   0.238   0.241   0.248   0.244   0.241   0.248   0.255   0.256   0.249   0.239   0.231   0.232   0.239   0.238   0.232   0.229   0.233   0.242   0.246   0.238   0.244   0.241   0.233   0.231   0.234   0.228   0.233   0.230   0.228   0.231   0.238   0.239   0.231   0.227   0.230   0.227   0.226   0.218   0.230   0.234   0.228   0.233   0.238   0.238   0.241   0.233   0.227   0.233   0.236   0.232   0.232   0.232   0.236   0.238   0.234   0.241   0.238   0.233   0.237   0.235   0.233   0.242   0.239   0.235   0.245   0.239   0.235   0.228   0.232   0.237   0.232   0.233   0.234   0.234   0.227   0.232   0.239   0.238   0.229   0.233   0.232   0.234   0.249   0.240   0.230   0.237   0.242   0.244   0.240   0.242   0.242   0.241   0.243   0.236   0.243   0.234   0.241
    75.40    0.226   0.230   0.231   0.232   0.229   0.232   0.225   0.229   0.241   0.240   0.231   0.228   0.231   0.229   0.230   0.232   0.232   0.243   0.241   0.235   0.231   0.233   0.224   0.237   0.243   0.241   0.243   0.243   0.248   0.244   0.246   0.250   0.247   0.254   0.246   0.251   0.249   0.246   0.253   0.247   0.248   0.248   0.247   0.242   0.244   0.244   0.247   0.245   0.246   0.237   0.239   0.244   0.238   0.229   0.229   0.238   0.244   0.234   0.234   0.236   0.243   0.233   0.235   0.244   0.244   0.244   0.241   0.241   0.240   0.249   0.244   0.224   0.227   0.226   0.235   0.230   0.227   0.237   0.237   0.246   0.243   0.251   0.243   0.238   0.248   0.234   0.230   0.225   0.225   0.236   0.240   0.241   0.245   0.241   0.241   0.244   0.237   0.239   0.249   0.253   0.247   0.246   0.256   0.249   0.243   0.235   0.243   0.237   0.242   0.243   0.242   0.244   0.242   0.250   0.249   0.247   0.240   0.236   0.232   0.234   0.243   0.240   0.238   0.227   0.232   0.236   0.237   0.229   0.230   0.227   0.239   0.231   0.225   0.224   0.230   0.225   0.228   0.229   0.239   0.240   0.238   0.234   0.223   0.226   0.225   0.231   0.231   0.232   0.232   0.232   0.238   0.233   0.239   0.233   0.237   0.233   0.237   0.234   0.235   0.236   0.236   0.243   0.231   0.232   0.235   0.237   0.236   0.236   0.234   0.226   0.229   0.232   0.231   0.234   0.233   0.231   0.236   0.234   0.235   0.235   0.235   0.238   0.240   0.239   0.231   0.240   0.236   0.234   0.240   0.247   0.248   0.244   0.242
    66.10    0.236   0.233   0.229   0.231   0.235   0.232   0.233   0.235   0.245   0.240   0.233   0.228   0.224   0.229   0.233   0.236   0.237   0.234   0.242   0.236   0.231   0.234   0.223   0.234   0.244   0.243   0.243   0.248   0.243   0.242   0.239   0.243   0.242   0.250   0.248   0.248   0.242   0.243   0.245   0.240   0.230   0.234   0.238   0.242   0.237   0.241   0.247   0.251   0.250   0.235   0.234   0.239   0.234   0.237   0.233   0.231   0.237   0.232   0.241   0.238   0.246   0.241   0.238   0.235   0.238   0.241   0.245   0.236   0.241   0.242   0.237   0.233   0.235   0.237   0.231   0.232   0.229   0.238   0.236   0.232   0.244   0.248   0.240   0.240   0.241   0.236   0.235   0.225   0.224   0.239   0.247   0.241   0.246   0.234   0.238   0.237   0.246   0.248   0.253   0.248   0.247   0.245   0.251   0.252   0.245   0.240   0.237   0.242   0.243   0.239   0.241   0.244   0.244   0.250   0.250   0.251   0.238   0.239   0.239   0.236   0.238   0.240   0.233   0.235   0.239   0.231   0.231   0.230   0.220   0.229   0.223   0.225   0.226   0.230   0.235   0.226   0.227   0.230   0.236   0.242   0.239   0.227   0.216   0.229   0.221   0.220   0.230   0.223   0.232   0.231   0.231   0.233   0.232   0.229   0.235   0.240   0.237   0.234   0.234   0.239   0.247   0.239   0.230   0.235   0.241   0.236   0.232   0.231   0.227   0.235   0.225   0.233   0.233   0.233   0.238   0.232   0.236   0.240   0.236   0.237   0.235   0.236   0.244   0.237   0.241   0.239   0.239   0.233   0.235   0.242   0.245   0.251   0.250
    56.80    0.227   0.226   0.232   0.237   0.235   0.234   0.235   0.230   0.230   0.229   0.226   0.225   0.221   0.220   0.226   0.232   0.239   0.234   0.235   0.240   0.235   0.229   0.228   0.239   0.241   0.238   0.251   0.251   0.245   0.235   0.239   0.233   0.241   0.247   0.244   0.247   0.249   0.243   0.246   0.238   0.227   0.229   0.234   0.229   0.240   0.245   0.242   0.249   0.245   0.239   0.238   0.238   0.233   0.235   0.229   0.231   0.234   0.242   0.243   0.244   0.237   0.241   0.235   0.236   0.230   0.240   0.237   0.233   0.238   0.235   0.236   0.232   0.236   0.236   0.234   0.226   0.234   0.237   0.233   0.239   0.242   0.240   0.241   0.239   0.245   0.245   0.234   0.231   0.222   0.225   0.236   0.235   0.240   0.243   0.246   0.244   0.253   0.253   0.249   0.245   0.240   0.235   0.245   0.246   0.243   0.238   0.238   0.238   0.246   0.236   0.237   0.236   0.246   0.239   0.243   0.240   0.231   0.239   0.243   0.248   0.238   0.230   0.232   0.232   0.241   0.239   0.226   0.234   0.225   0.228   0.230   0.224   0.225   0.229   0.233   0.232   0.231   0.233   0.237   0.241   0.234   0.222   0.222   0.224   0.224   0.224   0.227   0.227   0.227   0.234   0.223   0.233   0.238   0.231   0.237   0.236   0.240   0.240   0.237   0.237   0.240   0.235   0.234   0.236   0.238   0.243   0.235   0.231   0.232   0.239   0.239   0.233   0.234   0.238   0.240   0.234   0.236   0.235   0.231   0.234   0.237   0.234   0.235   0.238   0.236   0.231   0.234   0.240   0.236   0.241   0.249   0.252   0.249
    47.50    0.228   0.222   0.232   0.236   0.238   0.246   0.231   0.231   0.230   0.231   0.228   0.222   0.224   0.219   0.221   0.230   0.234   0.234   0.238   0.235   0.238   0.234   0.241   0.240   0.245   0.242   0.246   0.250   0.248   0.241   0.236   0.234   0.240   0.242   0.242   0.240   0.239   0.240   0.244   0.233   0.229   0.230   0.233   0.238   0.238   0.239   0.246   0.238   0.236   0.231   0.234   0.234   0.233   0.234   0.225   0.226   0.227   0.227   0.239   0.237   0.243   0.244   0.235   0.224   0.224   0.232   0.229   0.242   0.238   0.238   0.237   0.233   0.230   0.229   0.233   0.228   0.231   0.225   0.227   0.239   0.239   0.237   0.244   0.242   0.243   0.242   0.236   0.233   0.236   0.229   0.233   0.234   0.243   0.237   0.240   0.241   0.244   0.255   0.253   0.253   0.234   0.235   0.243   0.245   0.239   0.236   0.239   0.237   0.240   0.235   0.232   0.241   0.236   0.228   0.238   0.239   0.232   0.238   0.242   0.239   0.232   0.234   0.230   0.235   0.238   0.244   0.233   0.234   0.233   0.223   0.225   0.234   0.229   0.224   0.223   0.229   0.228   0.229   0.236   0.237   0.228   0.226   0.231   0.230   0.229   0.226   0.230   0.233   0.235   0.232   0.229   0.231   0.234   0.238   0.238   0.237   0.229   0.231   0.234   0.234   0.234   0.234   0.228   0.235   0.233   0.235   0.237   0.239   0.231   0.236   0.226   0.220   0.234   0.234   0.232   0.229   0.227   0.232   0.225   0.235   0.227   0.235   0.237   0.237   0.236   0.230   0.233   0.239   0.236   0.242   0.239   0.250   0.241
    38.20    0.234   0.229   0.232   0.235   0.238   0.240   0.230   0.232   0.241   0.232   0.225   0.229   0.227   0.231   0.232   0.225   0.230   0.241   0.239   0.247   0.245   0.242   0.236   0.240   0.244   0.236   0.236   0.241   0.246   0.238   0.241   0.239   0.237   0.242   0.234   0.234   0.236   0.226   0.232   0.231   0.229   0.234   0.238   0.235   0.241   0.243   0.248   0.245   0.228   0.238   0.232   0.228   0.235   0.233   0.231   0.227   0.229   0.239   0.240   0.238   0.240   0.235   0.227   0.226   0.236   0.232   0.235   0.242   0.248   0.246   0.243   0.237   0.224   0.227   0.229   0.234   0.231   0.235   0.228   0.237   0.227   0.231   0.235   0.241   0.246   0.243   0.236   0.237   0.240   0.234   0.231   0.239   0.247   0.240   0.242   0.236   0.242   0.243   0.249   0.242   0.228   0.239   0.240   0.244   0.234   0.229   0.232   0.241   0.242   0.244   0.244   0.243   0.239   0.237   0.246   0.244   0.226   0.234   0.239   0.241   0.238   0.236   0.228   0.232   0.233   0.234   0.229   0.230   0.229   0.229   0.223   0.229   0.230   0.226   0.232   0.227   0.233   0.219   0.227   0.225   0.229   0.231   0.233   0.239   0.238   0.233   0.230   0.231   0.233   0.227   0.232   0.232   0.235   0.238   0.246   0.239   0.229   0.243   0.240   0.233   0.233   0.239   0.238   0.233   0.238   0.239   0.230   0.236   0.238   0.239   0.231   0.221   0.229   0.229   0.227   0.227   0.226   0.227   0.226   0.234   0.233   0.235   0.238   0.237   0.232   0.226   0.233   0.240   0.241   0.247   0.239   0.249   0.241
    28.90    0.230   0.228   0.236   0.239   0.235   0.236   0.234   0.223   0.232   0.232   0.224   0.225   0.232   0.232   0.233   0.229   0.226   0.238   0.246   0.245   0.243   0.245   0.241   0.237   0.233   0.228   0.233   0.236   0.246   0.231   0.242   0.234   0.237   0.232   0.238   0.239   0.237   0.228   0.229   0.232   0.227   0.229   0.240   0.244   0.240   0.242   0.240   0.243   0.233   0.230   0.227   0.231   0.232   0.232   0.226   0.237   0.235   0.252   0.249   0.245   0.239   0.237   0.231   0.230   0.238   0.235   0.244   0.249   0.249   0.246   0.249   0.239   0.234   0.232   0.236   0.237   0.234   0.239   0.236   0.239   0.234   0.230   0.238   0.249   0.237   0.236   0.233   0.229   0.230   0.232   0.230   0.235   0.238   0.239   0.240   0.238   0.243   0.241   0.229   0.233   0.238   0.235   0.238   0.238   0.235   0.234   0.236   0.230   0.239   0.239   0.235   0.240   0.241   0.251   0.250   0.236   0.232   0.234   0.231   0.242   0.235   0.235   0.236   0.239   0.229   0.232   0.233   0.237   0.239   0.230   0.232   0.230   0.231   0.236   0.233   0.231   0.227   0.224   0.227   0.231   0.229   0.230   0.237   0.234   0.228   0.231   0.230   0.237   0.239   0.237   0.239   0.230   0.226   0.234   0.240   0.242   0.244   0.246   0.238   0.231   0.238   0.241   0.242   0.230   0.238   0.247   0.238   0.238   0.243   0.235   0.233   0.232   0.230   0.231   0.221   0.226   0.229   0.232   0.228   0.226   0.227   0.225   0.230   0.230   0.226   0.231   0.234   0.232   0.242   0.237   0.243   0.240   0.236
    19.60    0.232   0.242   0.237   0.237   0.233   0.222   0.230   0.227   0.220   0.225   0.222   0.233   0.229   0.238   0.233   0.232   0.234   0.228   0.237   0.239   0.240   0.241   0.246   0.236   0.236   0.232   0.225   0.232   0.245   0.242   0.232   0.242   0.237   0.237   0.238   0.229   0.235   0.232   0.231   0.229   0.231   0.234   0.239   0.240   0.234   0.239   0.242   0.238   0.237   0.234   0.238   0.237   0.231   0.236   0.234   0.236   0.238   0.243   0.240   0.240   0.241   0.243   0.234   0.234   0.232   0.233   0.236   0.249   0.244   0.241   0.245   0.237   0.227   0.225   0.232   0.230   0.245   0.244   0.235   0.229   0.232   0.239   0.238   0.246   0.237   0.232   0.236   0.239   0.238   0.239   0.229   0.232   0.241   0.239   0.241   0.235   0.243   0.241   0.233   0.239   0.234   0.242   0.230   0.233   0.234   0.233   0.235   0.233   0.236   0.233   0.242   0.242   0.238   0.246   0.238   0.241   0.233   0.237   0.237   0.243   0.224   0.234   0.231   0.235   0.232   0.234   0.232   0.236   0.231   0.222   0.229   0.240   0.228   0.223   0.230   0.232   0.230   0.226   0.228   0.229   0.227   0.231   0.231   0.222   0.228   0.232   0.228   0.229   0.236   0.239   0.232   0.231   0.231   0.235   0.235   0.236   0.246   0.247   0.245   0.247   0.235   0.233   0.242   0.238   0.237   0.245   0.245   0.244   0.247   0.241   0.237   0.227   0.234   0.237   0.232   0.237   0.225   0.224   0.229   0.222   0.220   0.222   0.220   0.229   0.222   0.230   0.233   0.235   0.239   0.244   0.235   0.237   0.232
    10.30    0.231   0.236   0.240   0.237   0.234   0.226   0.224   0.222   0.222   0.228   0.233   0.237   0.240   0.235   0.229   0.224   0.232   0.236   0.241   0.243   0.242   0.238   0.238   0.235   0.234   0.235   0.232   0.234   0.237   0.237   0.235   0.241   0.240   0.242   0.239   0.230   0.232   0.226   0.222   0.233   0.239   0.231   0.240   0.241   0.245   0.243   0.244   0.236   0.238   0.242   0.245   0.242   0.232   0.235   0.238   0.242   0.241   0.237   0.240   0.234   0.238   0.244   0.238   0.232   0.240   0.245   0.242   0.240   0.239   0.241   0.237   0.231   0.227   0.224   0.226   0.227   0.237   0.240   0.239   0.233   0.233   0.236   0.238   0.248   0.244   0.233   0.237   0.237   0.234   0.240   0.238   0.230   0.229   0.231   0.232   0.241   0.241   0.239   0.233   0.238   0.228   0.220   0.228   0.226   0.230   0.227   0.234   0.234   0.232   0.228   0.242   0.248   0.246   0.240   0.242   0.251   0.250   0.248   0.239   0.233   0.232   0.235   0.229   0.234   0.230   0.225   0.229   0.231   0.234   0.235   0.231   0.227   0.232   0.230   0.232   0.228   0.227   0.227   0.230   0.227   0.227   0.221   0.234   0.226   0.223   0.225   0.225   0.235   0.235   0.237   0.224   0.225   0.230   0.234   0.232   0.238   0.246   0.248   0.245   0.234   0.235   0.230   0.227   0.234   0.238   0.237   0.253   0.249   0.250   0.243   0.240   0.240   0.231   0.241   0.239   0.225   0.228   0.228   0.234   0.225   0.229   0.223   0.219   0.225   0.226   0.225   0.228   0.232   0.242   0.246   0.231   0.243   0.238
     1.00    0.237   0.236   0.237   0.232   0.235   0.226   0.222   0.221   0.223   0.232   0.227   0.232   0.233   0.233   0.231   0.231   0.231   0.228   0.241   0.233   0.237   0.234   0.230   0.235   0.239   0.240   0.237   0.236   0.239   0.242   0.242   0.245   0.244   0.242   0.233   0.237   0.237   0.229   0.230   0.232   0.238   0.234   0.237   0.244   0.241   0.248   0.247   0.247   0.247   0.247   0.244   0.240   0.230   0.227   0.234   0.233   0.238   0.233   0.236   0.236   0.238   0.234   0.233   0.232   0.238   0.243   0.245   0.242   0.243   0.242   0.237   0.234   0.223   0.226   0.230   0.232   0.228   0.239   0.239   0.235   0.237   0.230   0.237   0.242   0.239   0.234   0.226   0.236   0.248   0.242   0.238   0.237   0.240   0.228   0.233   0.238   0.244   0.240   0.231   0.234   0.223   0.228   0.227   0.226   0.227   0.234   0.233   0.235   0.230   0.232   0.234   0.240   0.249   0.239   0.246   0.247   0.247   0.240   0.243   0.236   0.239   0.233   0.233   0.231   0.224   0.220   0.225   0.225   0.228   0.227   0.230   0.228   0.222   0.230   0.234   0.234   0.229   0.233   0.232   0.225   0.229   0.227   0.228   0.226   0.231   0.223   0.227   0.228   0.232   0.232   0.232   0.229   0.227   0.230   0.237   0.236   0.239   0.242   0.241   0.239   0.229   0.228   0.227   0.223   0.233   0.240   0.242   0.241   0.239   0.244   0.249   0.249   0.240   0.242   0.234   0.225   0.229   0.234   0.236   0.230   0.232   0.232   0.222   0.224   0.224   0.225   0.227   0.226   0.233   0.239   0.236   0.236   0.243

   Mean standard deviation across all grid points:
      u component:    0.469 m/s
      v component:    0.385 m/s
      w component:    0.236 m/s


U-component (X) statistics from the interpolated hub point:

   Mean =   9.7063 m/s
   TI   =   5.5290 %


Processing complete.  1.92332E+05 CPU seconds used.
