
This summary file was generated by TurbSim (from OpenFAST-v3.5.3) on 20-Apr-2025 at 10:14:57.


Runtime Options:

**********  Random seed #1
    RANLUX  Type of random number generator
         F  Output binary HH turbulence parameters?
         F  Output formatted turbulence parameters?
         F  Output AeroDyn HH files?
         T  Output AeroDyn FF files?
         F  Output BLADED FF files?
         F  Output tower data?
         F  Output HAWC FF files?
         F  Output formatted FF files?
         T  Output coherent turbulence time step file?
 0 -  NONE  IEC turbulence models scaled to exact specified standard deviation


Turbine/Model Specifications:

        37  Vertical grid-point matrix dimension
        35  Horizontal grid-point matrix dimension
     0.250  Time step [seconds]
   900.000  Analysis time [seconds]
   900.000  Usable output time [seconds]
    89.350  Hub height [m]
   167.400  Grid height [m]
   158.100  Grid width [m]
     0.000  Vertical flow angle [degrees]
     0.000  Horizontal flow angle [degrees]


Meteorological Boundary Conditions:

    TIMESR  User-input time series spectral model
       N/A  IEC standard
       N/A  IEC turbulence characteristic
       N/A  IEC turbulence type
       N/A  IEC Extreme Turbulence Model (ETM) "c" parameter [m/s]
       PL   Wind profile type
    90.000  Reference height [m]
    10.000  Reference wind speed [m/s]
       N/A  Jet height [m]
     0.120  Power law exponent
     0.030  Surface roughness length [m]


Non-IEC Meteorological Boundary Conditions:

    45.000  Site latitude [degrees]
     0.050  Gradient Richardson number
     0.480  Friction or shear velocity [m/s]
       N/A  Mixing layer depth [m]
       N/A  Mean hub u'w' Reynolds stress
       N/A  Mean hub u'v' Reynolds stress
       N/A  Mean hub v'w' Reynolds stress


Spatial Coherence Models:

       IEC  u-component coherence model
       IEC  v-component coherence model
       IEC  w-component coherence model
(   12.000, 0.353E-03)  u-component coherence parameters
(   12.000, 0.353E-03)  v-component coherence parameters
(   12.000, 0.353E-03)  w-component coherence parameters
       N/A  Coherence exponent


Coherent Turbulence Scaling Parameters:

.\EventData
            Name of the path containing the coherent turbulence data files
       les  Type of coherent turbulence data files
     0.500  Disturbance scale (ratio of wave height to rotor diameter)
     0.500  Fractional location of tower centerline from right
     1.000  Fractional location of hub height from the bottom of the dataset
    30.000  Minimum start time for coherent structures [seconds]


Profiles from User-Defined Time-Series Input:

  Height   Wind Speed   Horizontal Angle   Vertical Angle
   (m)        (m/s)          (deg)              (deg)    
  ------   ----------   ----------------   --------------
   94.00      10.00          -0.63                0.00


You have requested that the following file(s) be generated:

   /kfs3/scratch/agupta/Projects/RL_Incubator/FinalRuns_Veer/Seed4/./FFSim_Seed4/Cond00_v10.0_PL0.12_TI5.0/Case2_wdirp04/Seed_9/TurbSim/HighT12.bts (AeroDyn/TurbSim full-field wind file)


Turbulence Simulation Scaling Parameter Summary:

   Turbulence model used                            =  User-input time series
   Gradient Richardson number                       =    0.050
   Monin-Obukhov (M-O) z/L parameter                =    0.067
   Monin-Obukhov (M-O) length scale                 = 1340.250 m
   Mean wind speed at hub height                    =    9.991 m/s

   Wind profile type                                =  Power law
   Power law exponent                               =    0.120
   Mean shear across rotor disk                     =    0.019 (m/s)/m
   Assumed rotor diameter                           =  158.100 m
   Surface roughness length                         =    0.030 m

   Nyquist frequency of turbulent wind field        =    2.000 Hz

   Number of time steps in the FFT                  =     3600
   Number of time steps output                      =     3600
   Number of points simulated                       =     1296


Mean Flow Angles:

   Vertical   =   0.0 degrees
   Horizontal =   0.0 degrees

Mean Wind Speed Profile:

   Height    Wind Speed   Horizontal Angle  Vertical Angle  U-comp (X)   V-comp (Y)   W-comp (Z)
     (m)        (m/s)         (degrees)       (degrees)       (m/s)        (m/s)        (m/s)   
   ------    ----------   ----------------  --------------  ----------   ----------   ----------
    168.4       10.78            0.00            0.00         10.78         0.00         0.00
    163.7       10.74            0.00            0.00         10.74         0.00         0.00
    159.1       10.71            0.00            0.00         10.71         0.00         0.00
    154.4       10.67            0.00            0.00         10.67         0.00         0.00
    149.8       10.63            0.00            0.00         10.63         0.00         0.00
    145.1       10.59            0.00            0.00         10.59         0.00         0.00
    140.5       10.55            0.00            0.00         10.55         0.00         0.00
    135.8       10.51            0.00            0.00         10.51         0.00         0.00
    131.2       10.46            0.00            0.00         10.46         0.00         0.00
    126.5       10.42            0.00            0.00         10.42         0.00         0.00
    121.9       10.37            0.00            0.00         10.37         0.00         0.00
    117.2       10.32            0.00            0.00         10.32         0.00         0.00
    112.6       10.27            0.00            0.00         10.27         0.00         0.00
    107.9       10.22            0.00            0.00         10.22         0.00         0.00
    103.3       10.17            0.00            0.00         10.17         0.00         0.00
     98.6       10.11            0.00            0.00         10.11         0.00         0.00
     94.0       10.05            0.00            0.00         10.05         0.00         0.00
     89.3        9.99            0.00            0.00          9.99         0.00         0.00
     84.7        9.93            0.00            0.00          9.93         0.00         0.00
     80.0        9.86            0.00            0.00          9.86         0.00         0.00
     75.4        9.79            0.00            0.00          9.79         0.00         0.00
     70.7        9.72            0.00            0.00          9.72         0.00         0.00
     66.1        9.64            0.00            0.00          9.64         0.00         0.00
     61.4        9.55            0.00            0.00          9.55         0.00         0.00
     56.8        9.46            0.00            0.00          9.46         0.00         0.00
     52.1        9.37            0.00            0.00          9.37         0.00         0.00
     47.5        9.26            0.00            0.00          9.26         0.00         0.00
     42.8        9.15            0.00            0.00          9.15         0.00         0.00
     38.2        9.02            0.00            0.00          9.02         0.00         0.00
     33.5        8.88            0.00            0.00          8.88         0.00         0.00
     28.9        8.73            0.00            0.00          8.73         0.00         0.00
     24.2        8.54            0.00            0.00          8.54         0.00         0.00
     19.6        8.33            0.00            0.00          8.33         0.00         0.00
     14.9        8.06            0.00            0.00          8.06         0.00         0.00
     10.3        7.71            0.00            0.00          7.71         0.00         0.00
      5.6        7.17            0.00            0.00          7.17         0.00         0.00
      1.0        5.83            0.00            0.00          5.83         0.00         0.00


Harvested Random Seeds after Generation of the Random Numbers:

     65026800 K 1
            0 K 2


Hub-Height Simulated Turbulence Statistical Summary:

   Type of Wind        Min (m/s)   Mean (m/s)    Max (m/s)  Sigma (m/s)       TI (%)
   ----------------    ---------   ----------    ---------  -----------       ------
   Longitudinal (u)         8.50         9.99        11.81        0.519        5.195
   Lateral (v)             -1.60         0.00         1.08        0.394        3.945
   Vertical (w)            -0.93         0.00         0.76        0.242        2.420
   U component              8.50         9.99        11.81        0.519        5.195
   V component             -1.60         0.00         1.08        0.394        3.945
   W component             -0.93         0.00         0.76        0.242        2.420
   Horizontal (U&V)         8.51        10.00        11.82        0.520        5.197
   Total                    8.51        10.00        11.82        0.519        5.194

                       Min Reynolds     Mean Reynolds    Max Reynolds    Correlation
   Product             Stress (m/s)^2   Stress (m/s)^2   Stress (m/s)^2  Coefficient
   ----------------    --------------   --------------   --------------  -----------
   u'w'                     -0.837            -0.003             0.711        -0.024
   u'v'                     -1.390            -0.013             1.453        -0.064
   v'w'                     -0.804            -0.001             0.468        -0.015


   Friction Velocity (Ustar)  =      0.055 m/s
   Maximum Instantaneous TKE  =      1.731 (m/s)^2
   Maximum Instantaneous CTKE =      0.744 (m/s)^2


Grid Point Variance Summary:

   Y-coord  -79.05  -74.40  -69.75  -65.10  -60.45  -55.80  -51.15  -46.50  -41.85  -37.20  -32.55  -27.90  -23.25  -18.60  -13.95   -9.30   -4.65    0.00    4.65    9.30   13.95   18.60   23.25   27.90   32.55   37.20   41.85   46.50   51.15   55.80   60.45   65.10   69.75   74.40   79.05

   Height   Standard deviation at grid points for the u component:
   168.40    0.583   0.565   0.547   0.519   0.517   0.529   0.529   0.491   0.545   0.553   0.535   0.543   0.529   0.481   0.487   0.468   0.491   0.489   0.504   0.518   0.499   0.479   0.468   0.445   0.403   0.434   0.472   0.480   0.454   0.468   0.494   0.472   0.464   0.462   0.464
   163.75    0.574   0.544   0.532   0.522   0.528   0.533   0.582   0.527   0.558   0.583   0.529   0.519   0.515   0.489   0.476   0.492   0.490   0.474   0.486   0.496   0.495   0.498   0.448   0.443   0.442   0.457   0.489   0.484   0.460   0.470   0.459   0.453   0.437   0.472   0.482
   159.10    0.558   0.550   0.527   0.559   0.535   0.562   0.572   0.577   0.586   0.562   0.561   0.540   0.512   0.483   0.483   0.481   0.465   0.477   0.473   0.493   0.493   0.471   0.466   0.445   0.475   0.479   0.508   0.496   0.490   0.488   0.485   0.456   0.426   0.467   0.482
   154.45    0.592   0.546   0.552   0.560   0.551   0.547   0.556   0.579   0.544   0.545   0.559   0.517   0.488   0.483   0.478   0.458   0.469   0.450   0.471   0.495   0.449   0.456   0.434   0.437   0.488   0.477   0.502   0.506   0.488   0.485   0.436   0.421   0.412   0.437   0.471
   149.80    0.594   0.530   0.505   0.541   0.531   0.528   0.552   0.558   0.590   0.576   0.525   0.533   0.500   0.471   0.473   0.455   0.452   0.460   0.484   0.501   0.471   0.463   0.422   0.460   0.494   0.486   0.508   0.478   0.473   0.473   0.433   0.455   0.472   0.484   0.490
   145.15    0.602   0.534   0.529   0.545   0.542   0.579   0.569   0.569   0.567   0.568   0.558   0.527   0.511   0.461   0.448   0.439   0.425   0.456   0.488   0.453   0.477   0.496   0.477   0.471   0.479   0.466   0.510   0.479   0.476   0.460   0.440   0.476   0.509   0.538   0.516
   140.50    0.599   0.556   0.545   0.531   0.544   0.572   0.604   0.549   0.553   0.551   0.532   0.516   0.497   0.467   0.423   0.420   0.431   0.452   0.462   0.473   0.492   0.479   0.490   0.455   0.481   0.507   0.523   0.507   0.479   0.448   0.483   0.506   0.509   0.565   0.537
   135.85    0.584   0.570   0.546   0.533   0.542   0.582   0.605   0.559   0.571   0.567   0.536   0.518   0.496   0.440   0.437   0.445   0.465   0.470   0.513   0.478   0.489   0.474   0.500   0.479   0.510   0.505   0.510   0.494   0.482   0.473   0.521   0.541   0.553   0.568   0.554
   131.20    0.541   0.510   0.524   0.562   0.558   0.549   0.519   0.559   0.582   0.536   0.544   0.536   0.515   0.466   0.454   0.445   0.469   0.475   0.508   0.507   0.486   0.497   0.483   0.522   0.520   0.516   0.501   0.480   0.516   0.524   0.510   0.523   0.555   0.569   0.578
   126.55    0.507   0.499   0.537   0.548   0.540   0.549   0.539   0.561   0.548   0.534   0.506   0.530   0.502   0.495   0.477   0.459   0.517   0.539   0.506   0.470   0.465   0.468   0.479   0.509   0.550   0.541   0.511   0.496   0.512   0.537   0.526   0.558   0.542   0.560   0.546
   121.90    0.507   0.482   0.487   0.492   0.495   0.489   0.502   0.519   0.523   0.503   0.508   0.487   0.504   0.495   0.469   0.506   0.522   0.501   0.507   0.509   0.465   0.437   0.470   0.502   0.546   0.508   0.540   0.525   0.523   0.544   0.542   0.551   0.530   0.528   0.558
   117.25    0.493   0.468   0.501   0.471   0.461   0.446   0.512   0.522   0.537   0.477   0.488   0.479   0.466   0.487   0.483   0.498   0.516   0.505   0.528   0.531   0.511   0.494   0.476   0.520   0.530   0.491   0.543   0.519   0.547   0.536   0.574   0.525   0.539   0.499   0.519
   112.60    0.475   0.497   0.469   0.466   0.466   0.464   0.478   0.489   0.462   0.460   0.421   0.436   0.478   0.500   0.518   0.502   0.513   0.535   0.532   0.525   0.539   0.539   0.520   0.542   0.508   0.507   0.527   0.546   0.515   0.528   0.570   0.510   0.519   0.495   0.514
   107.95    0.492   0.525   0.493   0.479   0.486   0.432   0.451   0.479   0.472   0.456   0.428   0.459   0.486   0.475   0.499   0.502   0.507   0.525   0.554   0.581   0.557   0.543   0.525   0.522   0.528   0.545   0.545   0.520   0.503   0.486   0.519   0.536   0.523   0.497   0.528
   103.30    0.532   0.508   0.512   0.481   0.469   0.434   0.442   0.454   0.477   0.483   0.454   0.474   0.459   0.483   0.498   0.528   0.518   0.503   0.514   0.519   0.557   0.540   0.555   0.514   0.534   0.592   0.597   0.577   0.543   0.525   0.526   0.501   0.512   0.496   0.518
    98.65    0.541   0.518   0.521   0.496   0.475   0.436   0.448   0.473   0.471   0.481   0.472   0.477   0.476   0.492   0.500   0.537   0.517   0.498   0.517   0.520   0.545   0.527   0.562   0.564   0.565   0.590   0.596   0.587   0.551   0.524   0.500   0.493   0.500   0.509   0.470
    94.00    0.494   0.498   0.524   0.511   0.459   0.462   0.465   0.479   0.474   0.498   0.516   0.521   0.489   0.496   0.530   0.538   0.538   0.543   0.519   0.535   0.564   0.580   0.552   0.603   0.597   0.625   0.641   0.581   0.544   0.530   0.516   0.510   0.486   0.499   0.511
    89.35    0.501   0.485   0.467   0.463   0.456   0.462   0.475   0.471   0.473   0.513   0.503   0.524   0.510   0.538   0.565   0.527   0.538   0.519   0.533   0.518   0.571   0.558   0.588   0.613   0.613   0.596   0.626   0.587   0.550   0.570   0.512   0.513   0.504   0.514   0.493
    84.70    0.491   0.487   0.484   0.490   0.501   0.482   0.504   0.482   0.504   0.511   0.523   0.537   0.550   0.602   0.608   0.552   0.547   0.486   0.532   0.528   0.582   0.626   0.620   0.623   0.635   0.631   0.611   0.587   0.615   0.582   0.559   0.545   0.520   0.520   0.523
    80.05    0.493   0.525   0.526   0.520   0.539   0.511   0.504   0.506   0.512   0.532   0.569   0.563   0.563   0.598   0.601   0.574   0.556   0.565   0.536   0.550   0.568   0.603   0.572   0.603   0.628   0.630   0.585   0.606   0.600   0.585   0.525   0.546   0.530   0.514   0.497
    75.40    0.479   0.536   0.557   0.569   0.557   0.536   0.514   0.488   0.514   0.531   0.501   0.537   0.587   0.598   0.597   0.586   0.573   0.579   0.590   0.571   0.610   0.593   0.615   0.602   0.598   0.593   0.556   0.578   0.572   0.596   0.585   0.558   0.549   0.501   0.485
    70.75    0.467   0.539   0.586   0.594   0.586   0.551   0.542   0.533   0.515   0.534   0.512   0.532   0.597   0.620   0.572   0.563   0.576   0.582   0.568   0.622   0.637   0.621   0.607   0.571   0.597   0.564   0.548   0.533   0.561   0.608   0.602   0.567   0.513   0.490   0.512
    66.10    0.494   0.528   0.578   0.581   0.560   0.574   0.535   0.528   0.497   0.526   0.552   0.562   0.589   0.643   0.582   0.589   0.564   0.615   0.592   0.601   0.606   0.617   0.649   0.632   0.578   0.536   0.526   0.542   0.534   0.567   0.573   0.528   0.528   0.530   0.489
    61.45    0.497   0.543   0.552   0.566   0.583   0.546   0.543   0.521   0.560   0.539   0.520   0.568   0.565   0.597   0.613   0.604   0.593   0.613   0.611   0.619   0.600   0.627   0.606   0.624   0.573   0.543   0.533   0.526   0.501   0.514   0.550   0.519   0.483   0.480   0.499
    56.80    0.493   0.580   0.592   0.625   0.601   0.546   0.566   0.563   0.551   0.569   0.519   0.578   0.583   0.595   0.587   0.610   0.609   0.620   0.614   0.598   0.577   0.585   0.609   0.607   0.574   0.573   0.538   0.499   0.525   0.492   0.534   0.549   0.502   0.490   0.463
    52.15    0.484   0.530   0.538   0.564   0.594   0.551   0.536   0.540   0.562   0.550   0.556   0.548   0.569   0.559   0.550   0.589   0.634   0.619   0.594   0.627   0.630   0.608   0.587   0.550   0.531   0.508   0.515   0.543   0.537   0.503   0.534   0.517   0.487   0.474   0.491
    47.50    0.478   0.510   0.562   0.558   0.532   0.535   0.522   0.541   0.549   0.556   0.572   0.581   0.536   0.543   0.523   0.565   0.569   0.620   0.617   0.581   0.585   0.568   0.559   0.536   0.509   0.487   0.514   0.547   0.527   0.541   0.513   0.545   0.474   0.463   0.477
    42.85    0.488   0.513   0.528   0.535   0.535   0.527   0.489   0.554   0.560   0.569   0.529   0.524   0.565   0.526   0.503   0.525   0.544   0.572   0.581   0.592   0.553   0.528   0.536   0.519   0.509   0.451   0.482   0.505   0.500   0.506   0.488   0.490   0.492   0.509   0.476
    38.20    0.459   0.509   0.509   0.505   0.512   0.506   0.510   0.518   0.538   0.539   0.551   0.565   0.555   0.524   0.491   0.503   0.534   0.529   0.556   0.556   0.525   0.522   0.523   0.503   0.465   0.461   0.477   0.478   0.479   0.485   0.518   0.510   0.512   0.505   0.482
    33.55    0.475   0.494   0.542   0.497   0.502   0.504   0.500   0.532   0.530   0.537   0.540   0.535   0.518   0.492   0.483   0.480   0.515   0.507   0.526   0.545   0.511   0.461   0.465   0.477   0.467   0.499   0.480   0.485   0.493   0.545   0.499   0.512   0.480   0.502   0.498
    28.90    0.478   0.512   0.565   0.531   0.535   0.500   0.510   0.504   0.474   0.471   0.500   0.511   0.490   0.458   0.481   0.486   0.490   0.496   0.484   0.514   0.505   0.450   0.457   0.480   0.489   0.505   0.477   0.488   0.503   0.523   0.524   0.523   0.508   0.483   0.493
    24.25    0.495   0.508   0.558   0.539   0.553   0.507   0.491   0.454   0.458   0.468   0.451   0.487   0.487   0.454   0.442   0.471   0.473   0.453   0.468   0.473   0.447   0.438   0.490   0.475   0.490   0.478   0.469   0.465   0.466   0.470   0.516   0.544   0.547   0.487   0.483
    19.60    0.488   0.511   0.552   0.554   0.520   0.502   0.507   0.478   0.490   0.448   0.453   0.474   0.467   0.438   0.436   0.463   0.441   0.418   0.450   0.415   0.443   0.441   0.457   0.465   0.471   0.490   0.458   0.480   0.476   0.455   0.522   0.548   0.553   0.498   0.484
    14.95    0.460   0.525   0.521   0.518   0.510   0.517   0.464   0.476   0.494   0.453   0.459   0.443   0.453   0.432   0.424   0.434   0.428   0.394   0.411   0.440   0.442   0.440   0.439   0.465   0.505   0.494   0.448   0.468   0.487   0.491   0.532   0.539   0.501   0.495   0.497
    10.30    0.472   0.499   0.496   0.505   0.517   0.478   0.454   0.456   0.481   0.446   0.457   0.426   0.413   0.434   0.407   0.425   0.402   0.408   0.428   0.412   0.437   0.445   0.509   0.517   0.497   0.526   0.474   0.494   0.479   0.500   0.512   0.521   0.510   0.478   0.511
     5.65    0.470   0.518   0.448   0.488   0.493   0.476   0.448   0.449   0.460   0.476   0.446   0.425   0.424   0.432   0.419   0.437   0.415   0.423   0.451   0.424   0.455   0.493   0.505   0.508   0.501   0.513   0.489   0.466   0.487   0.500   0.514   0.519   0.518   0.512   0.475
     1.00    0.484   0.479   0.508   0.486   0.459   0.474   0.465   0.454   0.452   0.461   0.453   0.464   0.446   0.467   0.471   0.475   0.436   0.442   0.413   0.458   0.504   0.559   0.549   0.511   0.480   0.492   0.459   0.501   0.525   0.489   0.467   0.497   0.538   0.501   0.490

   Height   Standard deviation at grid points for the v component:
   168.40    0.376   0.366   0.362   0.368   0.350   0.374   0.381   0.366   0.388   0.381   0.372   0.384   0.388   0.397   0.399   0.407   0.409   0.410   0.419   0.439   0.427   0.427   0.450   0.425   0.438   0.429   0.399   0.400   0.422   0.403   0.421   0.422   0.416   0.422   0.397
   163.75    0.386   0.368   0.385   0.383   0.354   0.362   0.370   0.362   0.380   0.381   0.382   0.368   0.399   0.387   0.395   0.403   0.412   0.398   0.393   0.408   0.417   0.418   0.430   0.415   0.413   0.414   0.406   0.394   0.405   0.408   0.412   0.407   0.399   0.412   0.390
   159.10    0.398   0.383   0.397   0.384   0.366   0.359   0.351   0.353   0.374   0.398   0.395   0.372   0.388   0.383   0.405   0.416   0.419   0.383   0.382   0.410   0.427   0.391   0.416   0.401   0.395   0.385   0.394   0.402   0.405   0.407   0.398   0.398   0.397   0.407   0.374
   154.45    0.407   0.401   0.399   0.379   0.378   0.385   0.358   0.362   0.375   0.370   0.395   0.394   0.404   0.388   0.384   0.405   0.429   0.411   0.407   0.417   0.396   0.401   0.404   0.399   0.384   0.392   0.384   0.402   0.390   0.389   0.387   0.384   0.381   0.382   0.365
   149.80    0.396   0.387   0.383   0.387   0.391   0.388   0.397   0.373   0.378   0.387   0.400   0.390   0.391   0.380   0.404   0.411   0.404   0.418   0.413   0.408   0.419   0.404   0.408   0.412   0.372   0.382   0.397   0.404   0.393   0.390   0.381   0.370   0.384   0.373   0.382
   145.15    0.396   0.379   0.368   0.383   0.386   0.382   0.399   0.390   0.367   0.397   0.388   0.393   0.382   0.392   0.363   0.389   0.413   0.419   0.428   0.442   0.435   0.411   0.393   0.400   0.380   0.395   0.388   0.403   0.407   0.396   0.388   0.364   0.354   0.380   0.378
   140.50    0.379   0.366   0.358   0.365   0.373   0.369   0.374   0.367   0.382   0.400   0.403   0.395   0.381   0.377   0.378   0.402   0.406   0.423   0.444   0.444   0.411   0.412   0.398   0.390   0.416   0.405   0.413   0.403   0.406   0.398   0.376   0.362   0.382   0.387   0.374
   135.85    0.360   0.361   0.343   0.352   0.368   0.371   0.359   0.363   0.356   0.368   0.390   0.391   0.371   0.391   0.390   0.404   0.410   0.423   0.424   0.416   0.401   0.407   0.382   0.413   0.433   0.426   0.406   0.399   0.411   0.405   0.387   0.396   0.391   0.383   0.383
   131.20    0.365   0.353   0.374   0.359   0.367   0.367   0.358   0.349   0.362   0.389   0.393   0.377   0.378   0.367   0.387   0.400   0.417   0.422   0.415   0.389   0.390   0.384   0.381   0.408   0.425   0.418   0.386   0.369   0.376   0.376   0.380   0.394   0.387   0.396   0.392
   126.55    0.366   0.376   0.389   0.371   0.369   0.380   0.374   0.375   0.376   0.392   0.374   0.395   0.376   0.385   0.381   0.417   0.400   0.413   0.408   0.382   0.382   0.375   0.376   0.391   0.399   0.394   0.377   0.377   0.358   0.383   0.383   0.389   0.396   0.387   0.393
   121.90    0.383   0.384   0.397   0.386   0.391   0.383   0.382   0.386   0.403   0.404   0.404   0.385   0.405   0.378   0.391   0.406   0.406   0.398   0.402   0.385   0.397   0.392   0.382   0.390   0.391   0.385   0.384   0.365   0.377   0.369   0.362   0.377   0.398   0.382   0.409
   117.25    0.407   0.385   0.387   0.396   0.391   0.402   0.414   0.399   0.414   0.396   0.379   0.391   0.388   0.390   0.398   0.394   0.405   0.424   0.404   0.425   0.403   0.396   0.403   0.405   0.387   0.401   0.387   0.358   0.378   0.406   0.402   0.386   0.385   0.398   0.396
   112.60    0.422   0.388   0.384   0.397   0.407   0.423   0.409   0.415   0.426   0.394   0.397   0.396   0.408   0.412   0.413   0.397   0.419   0.424   0.416   0.417   0.393   0.402   0.421   0.389   0.408   0.409   0.394   0.396   0.383   0.407   0.372   0.382   0.374   0.390   0.372
   107.95    0.426   0.421   0.410   0.406   0.400   0.409   0.425   0.426   0.415   0.408   0.415   0.402   0.401   0.412   0.409   0.412   0.407   0.433   0.410   0.400   0.410   0.404   0.392   0.376   0.390   0.406   0.417   0.395   0.377   0.388   0.368   0.372   0.392   0.401   0.413
   103.30    0.409   0.418   0.408   0.409   0.388   0.422   0.425   0.433   0.434   0.448   0.426   0.426   0.419   0.416   0.395   0.415   0.424   0.405   0.420   0.413   0.413   0.414   0.393   0.411   0.402   0.400   0.406   0.407   0.386   0.382   0.388   0.388   0.379   0.390   0.398
    98.65    0.397   0.385   0.381   0.380   0.399   0.393   0.404   0.430   0.428   0.429   0.418   0.425   0.396   0.402   0.407   0.407   0.407   0.400   0.426   0.418   0.424   0.412   0.404   0.402   0.404   0.419   0.398   0.402   0.426   0.404   0.394   0.408   0.406   0.409   0.385
    94.00    0.419   0.396   0.389   0.357   0.385   0.401   0.421   0.422   0.424   0.417   0.443   0.422   0.415   0.406   0.402   0.413   0.397   0.383   0.403   0.381   0.396   0.405   0.405   0.407   0.395   0.413   0.394   0.397   0.405   0.379   0.381   0.386   0.390   0.403   0.391
    89.35    0.396   0.383   0.369   0.366   0.369   0.374   0.379   0.427   0.432   0.419   0.436   0.441   0.403   0.391   0.388   0.394   0.395   0.394   0.376   0.373   0.395   0.386   0.383   0.405   0.400   0.403   0.401   0.388   0.393   0.392   0.384   0.411   0.384   0.391   0.391
    84.70    0.383   0.373   0.354   0.349   0.352   0.358   0.372   0.390   0.413   0.431   0.417   0.422   0.403   0.374   0.386   0.388   0.371   0.394   0.410   0.387   0.404   0.391   0.388   0.384   0.385   0.378   0.381   0.383   0.378   0.387   0.374   0.395   0.381   0.394   0.375
    80.05    0.369   0.349   0.347   0.346   0.356   0.364   0.360   0.370   0.408   0.417   0.427   0.440   0.427   0.402   0.389   0.376   0.391   0.399   0.407   0.385   0.370   0.379   0.375   0.367   0.367   0.377   0.384   0.362   0.371   0.372   0.373   0.373   0.365   0.380   0.381
    75.40    0.364   0.349   0.358   0.358   0.373   0.371   0.387   0.376   0.408   0.425   0.421   0.401   0.402   0.395   0.383   0.379   0.368   0.381   0.390   0.380   0.370   0.373   0.386   0.366   0.356   0.374   0.381   0.355   0.382   0.384   0.376   0.355   0.354   0.372   0.378
    70.75    0.363   0.361   0.363   0.368   0.396   0.386   0.387   0.389   0.398   0.418   0.429   0.388   0.390   0.409   0.397   0.383   0.379   0.390   0.365   0.368   0.359   0.364   0.389   0.378   0.362   0.357   0.390   0.392   0.385   0.370   0.375   0.352   0.356   0.381   0.379
    66.10    0.360   0.352   0.380   0.374   0.391   0.389   0.396   0.390   0.421   0.413   0.418   0.396   0.395   0.407   0.398   0.398   0.359   0.372   0.374   0.369   0.389   0.385   0.382   0.404   0.385   0.383   0.386   0.384   0.396   0.392   0.362   0.382   0.382   0.383   0.389
    61.45    0.357   0.377   0.369   0.375   0.373   0.401   0.391   0.404   0.424   0.412   0.414   0.404   0.382   0.382   0.382   0.389   0.388   0.379   0.365   0.368   0.375   0.393   0.405   0.400   0.386   0.370   0.369   0.394   0.390   0.384   0.393   0.387   0.391   0.399   0.385
    56.80    0.349   0.360   0.357   0.370   0.380   0.406   0.382   0.386   0.412   0.418   0.387   0.398   0.373   0.373   0.363   0.373   0.393   0.386   0.368   0.365   0.377   0.397   0.398   0.378   0.378   0.376   0.377   0.396   0.398   0.393   0.402   0.393   0.401   0.410   0.400
    52.15    0.359   0.348   0.352   0.364   0.386   0.385   0.402   0.401   0.402   0.406   0.398   0.403   0.391   0.382   0.374   0.372   0.363   0.368   0.374   0.370   0.393   0.377   0.399   0.394   0.392   0.397   0.417   0.410   0.396   0.409   0.408   0.415   0.408   0.413   0.424
    47.50    0.350   0.375   0.382   0.373   0.378   0.389   0.395   0.413   0.433   0.411   0.413   0.394   0.386   0.371   0.374   0.377   0.364   0.357   0.361   0.372   0.378   0.392   0.392   0.386   0.394   0.395   0.412   0.427   0.402   0.412   0.418   0.403   0.410   0.430   0.433
    42.85    0.338   0.359   0.361   0.367   0.353   0.365   0.383   0.403   0.432   0.402   0.423   0.417   0.410   0.388   0.367   0.394   0.366   0.347   0.353   0.362   0.390   0.381   0.410   0.380   0.383   0.383   0.400   0.406   0.430   0.415   0.406   0.384   0.394   0.410   0.418
    38.20    0.359   0.363   0.351   0.357   0.363   0.375   0.390   0.396   0.404   0.418   0.422   0.400   0.403   0.385   0.389   0.378   0.372   0.356   0.363   0.377   0.389   0.394   0.403   0.389   0.393   0.393   0.391   0.399   0.404   0.405   0.392   0.399   0.394   0.412   0.401
    33.55    0.365   0.365   0.379   0.378   0.389   0.378   0.394   0.384   0.407   0.426   0.416   0.397   0.397   0.375   0.388   0.371   0.368   0.372   0.370   0.394   0.395   0.392   0.391   0.388   0.378   0.403   0.388   0.395   0.395   0.395   0.395   0.381   0.395   0.395   0.395
    28.90    0.386   0.380   0.390   0.386   0.388   0.384   0.394   0.407   0.400   0.398   0.399   0.388   0.398   0.384   0.389   0.373   0.374   0.371   0.373   0.385   0.406   0.399   0.400   0.392   0.381   0.386   0.415   0.420   0.411   0.398   0.385   0.396   0.412   0.405   0.373
    24.25    0.397   0.367   0.388   0.402   0.402   0.380   0.372   0.394   0.393   0.396   0.373   0.363   0.389   0.398   0.391   0.398   0.395   0.384   0.382   0.390   0.379   0.376   0.395   0.371   0.387   0.405   0.402   0.418   0.415   0.401   0.393   0.405   0.403   0.376   0.377
    19.60    0.391   0.400   0.398   0.426   0.390   0.390   0.365   0.388   0.387   0.391   0.377   0.390   0.395   0.402   0.401   0.391   0.382   0.389   0.393   0.382   0.377   0.364   0.382   0.402   0.410   0.399   0.410   0.409   0.411   0.419   0.431   0.405   0.408   0.424   0.404
    14.95    0.413   0.409   0.396   0.405   0.423   0.420   0.389   0.376   0.387   0.385   0.383   0.388   0.400   0.391   0.387   0.387   0.381   0.386   0.383   0.381   0.368   0.373   0.380   0.393   0.392   0.407   0.396   0.386   0.403   0.405   0.446   0.435   0.433   0.430   0.435
    10.30    0.396   0.421   0.388   0.401   0.419   0.401   0.388   0.396   0.384   0.385   0.395   0.392   0.407   0.383   0.376   0.381   0.386   0.378   0.380   0.391   0.403   0.405   0.428   0.399   0.425   0.439   0.412   0.408   0.413   0.416   0.436   0.443   0.412   0.402   0.417
     5.65    0.407   0.408   0.403   0.409   0.414   0.392   0.384   0.385   0.398   0.384   0.389   0.392   0.401   0.392   0.368   0.368   0.377   0.385   0.397   0.394   0.413   0.384   0.419   0.397   0.407   0.416   0.404   0.423   0.417   0.412   0.426   0.431   0.408   0.404   0.425
     1.00    0.403   0.389   0.378   0.382   0.389   0.386   0.395   0.416   0.384   0.388   0.385   0.394   0.384   0.373   0.362   0.367   0.375   0.384   0.383   0.390   0.402   0.402   0.406   0.411   0.397   0.412   0.424   0.433   0.418   0.412   0.429   0.412   0.391   0.397   0.429

   Height   Standard deviation at grid points for the w component:
   168.40    0.250   0.261   0.263   0.257   0.260   0.257   0.253   0.242   0.240   0.239   0.240   0.231   0.246   0.243   0.251   0.254   0.257   0.247   0.244   0.237   0.241   0.235   0.238   0.248   0.237   0.250   0.242   0.244   0.251   0.244   0.251   0.243   0.241   0.240   0.236
   163.75    0.248   0.261   0.270   0.261   0.270   0.263   0.257   0.249   0.250   0.244   0.240   0.241   0.246   0.248   0.245   0.249   0.251   0.240   0.239   0.240   0.239   0.239   0.237   0.252   0.249   0.242   0.244   0.248   0.249   0.246   0.249   0.245   0.244   0.242   0.241
   159.10    0.241   0.249   0.254   0.262   0.265   0.262   0.254   0.246   0.237   0.231   0.229   0.239   0.232   0.244   0.244   0.238   0.240   0.255   0.246   0.245   0.245   0.245   0.258   0.259   0.260   0.253   0.244   0.247   0.249   0.256   0.245   0.248   0.248   0.247   0.244
   154.45    0.236   0.247   0.249   0.257   0.265   0.261   0.261   0.250   0.236   0.236   0.237   0.236   0.234   0.242   0.240   0.247   0.248   0.250   0.244   0.242   0.255   0.259   0.261   0.261   0.250   0.256   0.240   0.237   0.238   0.256   0.263   0.249   0.247   0.243   0.244
   149.80    0.235   0.245   0.244   0.245   0.248   0.254   0.254   0.251   0.243   0.242   0.240   0.239   0.242   0.245   0.241   0.244   0.250   0.238   0.246   0.253   0.252   0.256   0.266   0.253   0.251   0.245   0.240   0.238   0.248   0.260   0.261   0.253   0.246   0.250   0.254
   145.15    0.250   0.251   0.245   0.245   0.244   0.248   0.245   0.250   0.258   0.249   0.235   0.230   0.248   0.243   0.240   0.238   0.248   0.243   0.252   0.254   0.247   0.243   0.250   0.248   0.251   0.245   0.247   0.235   0.241   0.258   0.258   0.244   0.244   0.253   0.254
   140.50    0.250   0.252   0.249   0.240   0.241   0.243   0.252   0.248   0.236   0.239   0.241   0.231   0.244   0.239   0.241   0.241   0.241   0.239   0.248   0.254   0.256   0.234   0.251   0.244   0.238   0.245   0.243   0.243   0.245   0.251   0.256   0.252   0.233   0.246   0.254
   135.85    0.245   0.244   0.238   0.233   0.235   0.230   0.237   0.242   0.236   0.237   0.236   0.231   0.244   0.240   0.233   0.238   0.237   0.239   0.241   0.239   0.251   0.252   0.244   0.241   0.237   0.245   0.240   0.241   0.240   0.243   0.241   0.240   0.239   0.239   0.248
   131.20    0.260   0.243   0.237   0.234   0.234   0.230   0.237   0.229   0.233   0.231   0.237   0.236   0.249   0.244   0.241   0.236   0.230   0.232   0.246   0.241   0.244   0.245   0.239   0.234   0.236   0.228   0.230   0.228   0.237   0.236   0.235   0.235   0.233   0.241   0.242
   126.55    0.264   0.261   0.246   0.237   0.236   0.238   0.235   0.237   0.240   0.237   0.237   0.229   0.239   0.235   0.232   0.241   0.241   0.235   0.241   0.243   0.249   0.236   0.242   0.236   0.235   0.222   0.225   0.238   0.235   0.237   0.244   0.247   0.235   0.238   0.238
   121.90    0.262   0.257   0.255   0.243   0.241   0.233   0.235   0.227   0.229   0.233   0.231   0.237   0.232   0.243   0.244   0.240   0.239   0.235   0.242   0.246   0.234   0.234   0.235   0.247   0.237   0.230   0.231   0.233   0.241   0.235   0.242   0.238   0.246   0.236   0.230
   117.25    0.257   0.261   0.262   0.242   0.237   0.243   0.232   0.233   0.229   0.235   0.242   0.239   0.240   0.246   0.238   0.234   0.238   0.234   0.231   0.238   0.233   0.238   0.240   0.242   0.235   0.232   0.227   0.232   0.239   0.241   0.244   0.241   0.235   0.238   0.233
   112.60    0.252   0.248   0.250   0.239   0.234   0.239   0.236   0.240   0.237   0.239   0.245   0.248   0.236   0.241   0.235   0.237   0.230   0.228   0.230   0.238   0.233   0.238   0.239   0.241   0.244   0.236   0.238   0.238   0.223   0.232   0.230   0.239   0.241   0.234   0.232
   107.95    0.251   0.242   0.244   0.236   0.241   0.237   0.236   0.229   0.244   0.240   0.239   0.239   0.247   0.241   0.242   0.238   0.232   0.228   0.236   0.242   0.242   0.237   0.239   0.247   0.253   0.245   0.237   0.230   0.218   0.222   0.222   0.230   0.233   0.237   0.239
   103.30    0.250   0.243   0.241   0.248   0.247   0.242   0.236   0.227   0.239   0.241   0.236   0.228   0.241   0.245   0.247   0.235   0.236   0.241   0.235   0.233   0.238   0.251   0.246   0.251   0.252   0.251   0.243   0.234   0.221   0.224   0.225   0.224   0.228   0.228   0.241
    98.65    0.260   0.261   0.261   0.266   0.241   0.240   0.234   0.241   0.240   0.245   0.232   0.233   0.237   0.251   0.241   0.236   0.234   0.244   0.238   0.242   0.255   0.244   0.244   0.250   0.238   0.243   0.235   0.232   0.229   0.225   0.224   0.219   0.226   0.239   0.244
    94.00    0.257   0.254   0.255   0.258   0.250   0.239   0.243   0.244   0.247   0.243   0.233   0.233   0.238   0.244   0.247   0.244   0.245   0.249   0.233   0.241   0.248   0.254   0.246   0.243   0.240   0.233   0.243   0.232   0.220   0.223   0.227   0.225   0.226   0.234   0.240
    89.35    0.249   0.244   0.242   0.245   0.250   0.244   0.256   0.257   0.242   0.242   0.237   0.241   0.234   0.243   0.249   0.248   0.251   0.242   0.244   0.243   0.246   0.249   0.255   0.240   0.237   0.241   0.240   0.234   0.228   0.225   0.223   0.224   0.225   0.235   0.240
    84.70    0.252   0.246   0.251   0.247   0.245   0.242   0.258   0.262   0.248   0.245   0.234   0.238   0.242   0.239   0.235   0.238   0.247   0.247   0.245   0.247   0.255   0.255   0.250   0.242   0.237   0.241   0.243   0.229   0.230   0.240   0.235   0.224   0.234   0.236   0.239
    80.05    0.241   0.244   0.244   0.254   0.249   0.241   0.246   0.251   0.249   0.249   0.241   0.227   0.233   0.237   0.232   0.241   0.248   0.244   0.251   0.256   0.252   0.253   0.245   0.243   0.245   0.247   0.244   0.238   0.232   0.239   0.228   0.237   0.235   0.238   0.237
    75.40    0.228   0.238   0.238   0.246   0.253   0.250   0.256   0.252   0.252   0.254   0.242   0.247   0.242   0.236   0.243   0.243   0.250   0.242   0.259   0.256   0.251   0.253   0.242   0.243   0.240   0.241   0.247   0.241   0.241   0.233   0.248   0.250   0.243   0.237   0.238
    70.75    0.237   0.232   0.237   0.243   0.255   0.259   0.251   0.250   0.257   0.247   0.242   0.234   0.240   0.234   0.246   0.250   0.249   0.253   0.260   0.254   0.256   0.257   0.251   0.246   0.232   0.229   0.240   0.236   0.244   0.244   0.233   0.231   0.234   0.227   0.236
    66.10    0.236   0.232   0.241   0.251   0.265   0.260   0.253   0.249   0.245   0.235   0.238   0.239   0.239   0.244   0.237   0.233   0.248   0.251   0.252   0.256   0.251   0.252   0.249   0.244   0.245   0.247   0.241   0.246   0.251   0.242   0.242   0.238   0.234   0.223   0.229
    61.45    0.250   0.250   0.251   0.247   0.255   0.260   0.258   0.255   0.252   0.230   0.232   0.240   0.238   0.239   0.241   0.253   0.246   0.250   0.252   0.252   0.255   0.243   0.251   0.262   0.250   0.249   0.251   0.254   0.257   0.248   0.249   0.235   0.232   0.230   0.228
    56.80    0.262   0.253   0.249   0.245   0.256   0.275   0.266   0.256   0.256   0.239   0.234   0.244   0.246   0.241   0.243   0.252   0.245   0.253   0.250   0.246   0.259   0.255   0.258   0.255   0.247   0.256   0.252   0.257   0.246   0.254   0.253   0.257   0.241   0.225   0.232
    52.15    0.273   0.272   0.247   0.255   0.257   0.261   0.267   0.261   0.262   0.252   0.242   0.242   0.243   0.238   0.240   0.245   0.250   0.255   0.259   0.258   0.248   0.255   0.257   0.252   0.248   0.257   0.252   0.255   0.257   0.248   0.250   0.251   0.237   0.230   0.228
    47.50    0.260   0.262   0.262   0.262   0.249   0.249   0.257   0.267   0.263   0.257   0.249   0.242   0.241   0.243   0.249   0.252   0.261   0.261   0.262   0.266   0.258   0.261   0.243   0.256   0.255   0.255   0.252   0.260   0.258   0.256   0.246   0.238   0.238   0.233   0.231
    42.85    0.255   0.251   0.252   0.243   0.248   0.257   0.262   0.249   0.253   0.240   0.243   0.240   0.239   0.247   0.248   0.268   0.268   0.264   0.269   0.260   0.262   0.255   0.244   0.253   0.264   0.259   0.250   0.252   0.257   0.256   0.249   0.241   0.239   0.236   0.235
    38.20    0.251   0.246   0.252   0.250   0.239   0.250   0.257   0.246   0.240   0.239   0.239   0.249   0.232   0.255   0.257   0.267   0.259   0.262   0.266   0.261   0.256   0.250   0.254   0.260   0.256   0.252   0.251   0.249   0.241   0.245   0.244   0.240   0.235   0.239   0.232
    33.55    0.239   0.239   0.248   0.255   0.248   0.249   0.253   0.241   0.237   0.239   0.256   0.245   0.243   0.241   0.260   0.257   0.271   0.266   0.263   0.260   0.257   0.254   0.246   0.253   0.255   0.245   0.249   0.243   0.235   0.242   0.240   0.238   0.238   0.234   0.235
    28.90    0.245   0.245   0.238   0.254   0.250   0.252   0.255   0.249   0.235   0.241   0.250   0.247   0.249   0.253   0.264   0.254   0.256   0.270   0.259   0.259   0.254   0.255   0.260   0.249   0.242   0.250   0.245   0.238   0.236   0.240   0.242   0.233   0.235   0.243   0.240
    24.25    0.238   0.244   0.237   0.245   0.246   0.248   0.249   0.244   0.239   0.244   0.249   0.235   0.241   0.240   0.246   0.251   0.248   0.262   0.264   0.251   0.256   0.261   0.250   0.252   0.247   0.246   0.242   0.247   0.237   0.244   0.235   0.235   0.244   0.238   0.244
    19.60    0.244   0.240   0.234   0.239   0.234   0.239   0.242   0.236   0.238   0.236   0.237   0.240   0.240   0.242   0.237   0.251   0.254   0.252   0.259   0.256   0.264   0.259   0.252   0.248   0.252   0.243   0.241   0.244   0.246   0.236   0.237   0.236   0.240   0.235   0.251
    14.95    0.242   0.235   0.240   0.234   0.241   0.244   0.239   0.236   0.237   0.247   0.234   0.236   0.241   0.245   0.238   0.248   0.256   0.252   0.263   0.250   0.252   0.239   0.252   0.256   0.254   0.251   0.242   0.246   0.250   0.240   0.241   0.249   0.250   0.242   0.246
    10.30    0.244   0.236   0.238   0.226   0.231   0.241   0.231   0.239   0.245   0.249   0.248   0.243   0.246   0.242   0.242   0.250   0.252   0.253   0.265   0.259   0.248   0.252   0.243   0.245   0.254   0.266   0.249   0.241   0.245   0.242   0.246   0.250   0.240   0.244   0.239
     5.65    0.240   0.233   0.235   0.230   0.226   0.230   0.230   0.238   0.245   0.256   0.260   0.253   0.241   0.246   0.247   0.251   0.254   0.251   0.244   0.261   0.252   0.256   0.256   0.258   0.268   0.259   0.255   0.253   0.250   0.254   0.239   0.240   0.235   0.241   0.242
     1.00    0.243   0.234   0.231   0.233   0.231   0.233   0.236   0.246   0.249   0.254   0.259   0.248   0.244   0.250   0.252   0.248   0.251   0.248   0.248   0.246   0.252   0.257   0.252   0.258   0.261   0.259   0.257   0.253   0.253   0.250   0.246   0.244   0.236   0.236   0.232

   Mean standard deviation across all grid points:
      u component:    0.515 m/s
      v component:    0.393 m/s
      w component:    0.245 m/s


U-component (X) statistics from the interpolated hub point:

   Mean =   9.9913 m/s
   TI   =   5.1946 %


Processing complete.  6425.8 CPU seconds used.
