
This summary file was generated by TurbSim (from OpenFAST-v3.5.3) on 20-Apr-2025 at 11:23:48.


Runtime Options:

**********  Random seed #1
    RANLUX  Type of random number generator
         F  Output binary HH turbulence parameters?
         F  Output formatted turbulence parameters?
         F  Output AeroDyn HH files?
         T  Output AeroDyn FF files?
         F  Output BLADED FF files?
         F  Output tower data?
         F  Output HAWC FF files?
         F  Output formatted FF files?
         T  Output coherent turbulence time step file?
 0 -  NONE  IEC turbulence models scaled to exact specified standard deviation


Turbine/Model Specifications:

        37  Vertical grid-point matrix dimension
        35  Horizontal grid-point matrix dimension
     0.250  Time step [seconds]
   900.000  Analysis time [seconds]
   900.000  Usable output time [seconds]
    89.350  Hub height [m]
   167.400  Grid height [m]
   158.100  Grid width [m]
     0.000  Vertical flow angle [degrees]
     0.000  Horizontal flow angle [degrees]


Meteorological Boundary Conditions:

    TIMESR  User-input time series spectral model
       N/A  IEC standard
       N/A  IEC turbulence characteristic
       N/A  IEC turbulence type
       N/A  IEC Extreme Turbulence Model (ETM) "c" parameter [m/s]
       PL   Wind profile type
    90.000  Reference height [m]
    10.000  Reference wind speed [m/s]
       N/A  Jet height [m]
     0.120  Power law exponent
     0.030  Surface roughness length [m]


Non-IEC Meteorological Boundary Conditions:

    45.000  Site latitude [degrees]
     0.050  Gradient Richardson number
     0.480  Friction or shear velocity [m/s]
       N/A  Mixing layer depth [m]
       N/A  Mean hub u'w' Reynolds stress
       N/A  Mean hub u'v' Reynolds stress
       N/A  Mean hub v'w' Reynolds stress


Spatial Coherence Models:

       IEC  u-component coherence model
       IEC  v-component coherence model
       IEC  w-component coherence model
(   12.000, 0.353E-03)  u-component coherence parameters
(   12.000, 0.353E-03)  v-component coherence parameters
(   12.000, 0.353E-03)  w-component coherence parameters
       N/A  Coherence exponent


Coherent Turbulence Scaling Parameters:

.\EventData
            Name of the path containing the coherent turbulence data files
       dns  Type of coherent turbulence data files
     1.000  Disturbance scale (ratio of wave height to rotor diameter)
     0.500  Fractional location of tower centerline from right
     0.500  Fractional location of hub height from the bottom of the dataset
    30.000  Minimum start time for coherent structures [seconds]


Profiles from User-Defined Time-Series Input:

  Height   Wind Speed   Horizontal Angle   Vertical Angle
   (m)        (m/s)          (deg)              (deg)    
  ------   ----------   ----------------   --------------
   94.00      10.00          -0.63                0.00


You have requested that the following file(s) be generated:

   /kfs3/scratch/agupta/Projects/RL_Incubator/FinalRuns_Veer/Seed4/./FFSim_Seed4/Cond00_v10.0_PL0.12_TI6.0/Case3_wdirp06/Seed_3/TurbSim/HighT4.bts (AeroDyn/TurbSim full-field wind file)


Turbulence Simulation Scaling Parameter Summary:

   Turbulence model used                            =  User-input time series
   Gradient Richardson number                       =    0.050
   Monin-Obukhov (M-O) z/L parameter                =    0.067
   Monin-Obukhov (M-O) length scale                 = 1340.250 m
   Mean wind speed at hub height                    =    9.991 m/s

   Wind profile type                                =  Power law
   Power law exponent                               =    0.120
   Mean shear across rotor disk                     =    0.019 (m/s)/m
   Assumed rotor diameter                           =  158.100 m
   Surface roughness length                         =    0.030 m

   Nyquist frequency of turbulent wind field        =    2.000 Hz

   Number of time steps in the FFT                  =     3600
   Number of time steps output                      =     3600
   Number of points simulated                       =     1296


Mean Flow Angles:

   Vertical   =   0.0 degrees
   Horizontal =   0.0 degrees

Mean Wind Speed Profile:

   Height    Wind Speed   Horizontal Angle  Vertical Angle  U-comp (X)   V-comp (Y)   W-comp (Z)
     (m)        (m/s)         (degrees)       (degrees)       (m/s)        (m/s)        (m/s)   
   ------    ----------   ----------------  --------------  ----------   ----------   ----------
    168.4       10.78            0.00            0.00         10.78         0.00         0.00
    163.7       10.74            0.00            0.00         10.74         0.00         0.00
    159.1       10.71            0.00            0.00         10.71         0.00         0.00
    154.4       10.67            0.00            0.00         10.67         0.00         0.00
    149.8       10.63            0.00            0.00         10.63         0.00         0.00
    145.1       10.59            0.00            0.00         10.59         0.00         0.00
    140.5       10.55            0.00            0.00         10.55         0.00         0.00
    135.8       10.51            0.00            0.00         10.51         0.00         0.00
    131.2       10.46            0.00            0.00         10.46         0.00         0.00
    126.5       10.42            0.00            0.00         10.42         0.00         0.00
    121.9       10.37            0.00            0.00         10.37         0.00         0.00
    117.2       10.32            0.00            0.00         10.32         0.00         0.00
    112.6       10.27            0.00            0.00         10.27         0.00         0.00
    107.9       10.22            0.00            0.00         10.22         0.00         0.00
    103.3       10.17            0.00            0.00         10.17         0.00         0.00
     98.6       10.11            0.00            0.00         10.11         0.00         0.00
     94.0       10.05            0.00            0.00         10.05         0.00         0.00
     89.3        9.99            0.00            0.00          9.99         0.00         0.00
     84.7        9.93            0.00            0.00          9.93         0.00         0.00
     80.0        9.86            0.00            0.00          9.86         0.00         0.00
     75.4        9.79            0.00            0.00          9.79         0.00         0.00
     70.7        9.72            0.00            0.00          9.72         0.00         0.00
     66.1        9.64            0.00            0.00          9.64         0.00         0.00
     61.4        9.55            0.00            0.00          9.55         0.00         0.00
     56.8        9.46            0.00            0.00          9.46         0.00         0.00
     52.1        9.37            0.00            0.00          9.37         0.00         0.00
     47.5        9.26            0.00            0.00          9.26         0.00         0.00
     42.8        9.15            0.00            0.00          9.15         0.00         0.00
     38.2        9.02            0.00            0.00          9.02         0.00         0.00
     33.5        8.88            0.00            0.00          8.88         0.00         0.00
     28.9        8.73            0.00            0.00          8.73         0.00         0.00
     24.2        8.54            0.00            0.00          8.54         0.00         0.00
     19.6        8.33            0.00            0.00          8.33         0.00         0.00
     14.9        8.06            0.00            0.00          8.06         0.00         0.00
     10.3        7.71            0.00            0.00          7.71         0.00         0.00
      5.6        7.17            0.00            0.00          7.17         0.00         0.00
      1.0        5.83            0.00            0.00          5.83         0.00         0.00


Harvested Random Seeds after Generation of the Random Numbers:

     65026800 K 1
            0 K 2


Hub-Height Simulated Turbulence Statistical Summary:

   Type of Wind        Min (m/s)   Mean (m/s)    Max (m/s)  Sigma (m/s)       TI (%)
   ----------------    ---------   ----------    ---------  -----------       ------
   Longitudinal (u)         8.11         9.99        11.99        0.578        5.785
   Lateral (v)             -1.35         0.00         1.23        0.409        4.095
   Vertical (w)            -1.07        -0.00         1.17        0.289        2.891
   U component              8.11         9.99        11.99        0.578        5.785
   V component             -1.35         0.00         1.23        0.409        4.095
   W component             -1.07        -0.00         1.17        0.289        2.891
   Horizontal (U&V)         8.14        10.00        11.99        0.577        5.774
   Total                    8.14        10.00        11.99        0.577        5.768

                       Min Reynolds     Mean Reynolds    Max Reynolds    Correlation
   Product             Stress (m/s)^2   Stress (m/s)^2   Stress (m/s)^2  Coefficient
   ----------------    --------------   --------------   --------------  -----------
   u'w'                     -0.940             0.006             0.974         0.034
   u'v'                     -1.487             0.031             1.311         0.132
   v'w'                     -0.584            -0.003             0.759        -0.027


   Friction Velocity (Ustar)  =      0.075 m/s
   Maximum Instantaneous TKE  =      2.015 (m/s)^2
   Maximum Instantaneous CTKE =      0.762 (m/s)^2


Grid Point Variance Summary:

   Y-coord  -79.05  -74.40  -69.75  -65.10  -60.45  -55.80  -51.15  -46.50  -41.85  -37.20  -32.55  -27.90  -23.25  -18.60  -13.95   -9.30   -4.65    0.00    4.65    9.30   13.95   18.60   23.25   27.90   32.55   37.20   41.85   46.50   51.15   55.80   60.45   65.10   69.75   74.40   79.05

   Height   Standard deviation at grid points for the u component:
   168.40    0.603   0.612   0.607   0.671   0.634   0.683   0.701   0.724   0.665   0.652   0.664   0.648   0.568   0.581   0.530   0.513   0.535   0.504   0.482   0.498   0.499   0.518   0.543   0.580   0.577   0.636   0.637   0.633   0.629   0.621   0.633   0.669   0.705   0.706   0.783
   163.75    0.627   0.642   0.628   0.667   0.653   0.690   0.708   0.699   0.656   0.641   0.636   0.603   0.543   0.531   0.478   0.526   0.510   0.512   0.492   0.485   0.520   0.546   0.552   0.544   0.562   0.634   0.645   0.595   0.589   0.642   0.695   0.671   0.709   0.731   0.770
   159.10    0.612   0.573   0.584   0.621   0.638   0.696   0.690   0.647   0.657   0.672   0.641   0.567   0.593   0.554   0.534   0.552   0.495   0.526   0.506   0.535   0.557   0.586   0.610   0.597   0.601   0.651   0.687   0.650   0.620   0.601   0.674   0.696   0.646   0.700   0.716
   154.45    0.585   0.569   0.594   0.657   0.679   0.698   0.684   0.689   0.645   0.639   0.636   0.580   0.582   0.597   0.538   0.532   0.533   0.523   0.528   0.546   0.596   0.598   0.650   0.639   0.605   0.634   0.706   0.682   0.657   0.651   0.705   0.705   0.646   0.677   0.666
   149.80    0.578   0.593   0.550   0.613   0.670   0.646   0.696   0.676   0.636   0.597   0.628   0.586   0.588   0.549   0.568   0.519   0.500   0.496   0.544   0.533   0.593   0.608   0.671   0.634   0.599   0.627   0.665   0.693   0.678   0.743   0.756   0.700   0.636   0.666   0.666
   145.15    0.649   0.600   0.583   0.581   0.649   0.700   0.670   0.709   0.659   0.594   0.619   0.565   0.599   0.545   0.526   0.516   0.544   0.536   0.538   0.511   0.581   0.618   0.656   0.642   0.622   0.653   0.625   0.655   0.646   0.719   0.732   0.735   0.662   0.670   0.640
   140.50    0.697   0.654   0.659   0.643   0.677   0.676   0.709   0.700   0.665   0.617   0.592   0.551   0.556   0.507   0.518   0.516   0.541   0.560   0.565   0.554   0.611   0.613   0.664   0.628   0.643   0.660   0.625   0.615   0.612   0.719   0.689   0.685   0.684   0.640   0.631
   135.85    0.764   0.680   0.676   0.702   0.647   0.658   0.676   0.669   0.597   0.604   0.559   0.518   0.548   0.526   0.503   0.508   0.581   0.597   0.584   0.587   0.595   0.672   0.627   0.634   0.662   0.685   0.699   0.674   0.660   0.731   0.771   0.725   0.736   0.665   0.643
   131.20    0.759   0.674   0.691   0.637   0.669   0.656   0.617   0.649   0.625   0.577   0.533   0.556   0.520   0.518   0.527   0.591   0.577   0.592   0.580   0.577   0.572   0.623   0.640   0.680   0.709   0.768   0.755   0.739   0.690   0.726   0.737   0.719   0.689   0.647   0.683
   126.55    0.751   0.672   0.672   0.648   0.620   0.664   0.640   0.642   0.663   0.603   0.580   0.564   0.553   0.588   0.576   0.579   0.557   0.516   0.561   0.617   0.614   0.619   0.650   0.676   0.735   0.797   0.779   0.694   0.727   0.727   0.650   0.698   0.665   0.642   0.700
   121.90    0.724   0.710   0.746   0.682   0.708   0.678   0.659   0.666   0.684   0.620   0.594   0.611   0.588   0.584   0.603   0.538   0.490   0.502   0.566   0.586   0.627   0.656   0.659   0.674   0.746   0.787   0.769   0.742   0.714   0.684   0.661   0.712   0.718   0.693   0.704
   117.25    0.769   0.758   0.732   0.741   0.706   0.671   0.715   0.688   0.684   0.634   0.614   0.562   0.602   0.594   0.576   0.588   0.515   0.485   0.521   0.581   0.594   0.611   0.643   0.651   0.747   0.802   0.738   0.762   0.753   0.734   0.723   0.729   0.744   0.661   0.666
   112.60    0.749   0.749   0.756   0.786   0.758   0.687   0.722   0.672   0.705   0.678   0.592   0.576   0.581   0.615   0.577   0.540   0.551   0.502   0.502   0.532   0.559   0.562   0.615   0.660   0.749   0.791   0.728   0.738   0.727   0.780   0.772   0.766   0.730   0.656   0.673
   107.95    0.688   0.740   0.748   0.759   0.765   0.709   0.695   0.656   0.661   0.664   0.597   0.577   0.574   0.603   0.566   0.555   0.558   0.508   0.524   0.527   0.569   0.551   0.628   0.713   0.739   0.775   0.742   0.730   0.782   0.757   0.769   0.723   0.714   0.697   0.629
   103.30    0.687   0.727   0.664   0.721   0.706   0.675   0.636   0.625   0.634   0.598   0.550   0.579   0.580   0.568   0.540   0.509   0.502   0.497   0.557   0.557   0.599   0.567   0.594   0.674   0.737   0.748   0.698   0.732   0.740   0.728   0.704   0.733   0.694   0.635   0.650
    98.65    0.734   0.709   0.710   0.715   0.665   0.618   0.597   0.589   0.619   0.557   0.559   0.577   0.592   0.541   0.504   0.538   0.517   0.551   0.548   0.534   0.568   0.568   0.636   0.644   0.693   0.742   0.694   0.683   0.706   0.699   0.648   0.673   0.720   0.668   0.667
    94.00    0.708   0.722   0.744   0.736   0.699   0.627   0.671   0.631   0.632   0.580   0.523   0.559   0.540   0.529   0.535   0.532   0.527   0.535   0.512   0.575   0.605   0.652   0.643   0.618   0.676   0.698   0.711   0.707   0.714   0.656   0.674   0.599   0.651   0.682   0.679
    89.35    0.701   0.690   0.694   0.688   0.679   0.642   0.699   0.617   0.640   0.610   0.562   0.549   0.524   0.492   0.520   0.529   0.552   0.578   0.535   0.574   0.628   0.670   0.641   0.632   0.669   0.655   0.664   0.666   0.634   0.694   0.667   0.617   0.603   0.647   0.694
    84.70    0.730   0.679   0.620   0.628   0.614   0.647   0.672   0.641   0.629   0.600   0.591   0.520   0.549   0.531   0.524   0.573   0.574   0.584   0.624   0.593   0.635   0.660   0.695   0.660   0.648   0.685   0.727   0.723   0.653   0.679   0.650   0.637   0.654   0.683   0.682
    80.05    0.704   0.624   0.602   0.632   0.650   0.625   0.649   0.645   0.631   0.597   0.566   0.542   0.555   0.601   0.585   0.551   0.624   0.670   0.699   0.613   0.629   0.682   0.681   0.729   0.718   0.684   0.730   0.684   0.626   0.696   0.723   0.695   0.705   0.681   0.637
    75.40    0.694   0.609   0.614   0.651   0.625   0.602   0.625   0.608   0.583   0.599   0.598   0.564   0.597   0.621   0.624   0.581   0.619   0.668   0.713   0.645   0.622   0.662   0.735   0.712   0.711   0.733   0.692   0.716   0.646   0.667   0.719   0.685   0.734   0.689   0.653
    70.75    0.655   0.625   0.659   0.719   0.718   0.637   0.615   0.590   0.595   0.599   0.582   0.579   0.634   0.657   0.618   0.556   0.584   0.655   0.716   0.678   0.682   0.697   0.754   0.691   0.716   0.687   0.692   0.644   0.659   0.677   0.696   0.710   0.737   0.688   0.688
    66.10    0.636   0.630   0.727   0.734   0.719   0.656   0.677   0.652   0.628   0.569   0.534   0.571   0.558   0.632   0.647   0.618   0.607   0.636   0.701   0.732   0.749   0.733   0.726   0.729   0.691   0.733   0.668   0.625   0.660   0.696   0.663   0.722   0.740   0.695   0.633
    61.45    0.640   0.681   0.745   0.715   0.708   0.718   0.662   0.625   0.581   0.574   0.519   0.541   0.569   0.636   0.673   0.649   0.643   0.681   0.714   0.751   0.711   0.698   0.693   0.703   0.697   0.714   0.713   0.663   0.642   0.653   0.669   0.714   0.750   0.653   0.566
    56.80    0.693   0.666   0.737   0.756   0.705   0.733   0.666   0.644   0.630   0.594   0.561   0.579   0.574   0.584   0.644   0.670   0.671   0.677   0.673   0.701   0.749   0.779   0.763   0.780   0.729   0.701   0.705   0.705   0.682   0.631   0.601   0.674   0.705   0.658   0.603
    52.15    0.715   0.646   0.712   0.747   0.720   0.740   0.653   0.667   0.613   0.610   0.583   0.555   0.580   0.542   0.571   0.626   0.661   0.684   0.715   0.752   0.763   0.778   0.783   0.752   0.671   0.694   0.649   0.665   0.617   0.658   0.615   0.647   0.691   0.631   0.601
    47.50    0.678   0.647   0.660   0.724   0.705   0.704   0.657   0.625   0.655   0.636   0.605   0.590   0.550   0.542   0.544   0.603   0.604   0.669   0.740   0.740   0.713   0.759   0.751   0.691   0.622   0.620   0.621   0.597   0.620   0.649   0.661   0.667   0.646   0.663   0.639
    42.85    0.758   0.689   0.751   0.752   0.715   0.665   0.643   0.664   0.595   0.603   0.635   0.648   0.573   0.554   0.602   0.629   0.632   0.675   0.711   0.728   0.719   0.706   0.682   0.682   0.612   0.567   0.559   0.581   0.643   0.618   0.615   0.597   0.642   0.633   0.639
    38.20    0.725   0.709   0.753   0.708   0.723   0.741   0.697   0.647   0.640   0.632   0.632   0.615   0.610   0.621   0.628   0.611   0.680   0.690   0.737   0.660   0.693   0.645   0.620   0.647   0.661   0.565   0.544   0.578   0.652   0.624   0.623   0.597   0.645   0.645   0.600
    33.55    0.743   0.743   0.749   0.705   0.740   0.721   0.750   0.686   0.627   0.692   0.706   0.681   0.679   0.658   0.661   0.631   0.718   0.730   0.706   0.690   0.696   0.693   0.673   0.643   0.592   0.580   0.575   0.551   0.603   0.661   0.642   0.637   0.664   0.657   0.669
    28.90    0.723   0.680   0.658   0.671   0.683   0.668   0.673   0.705   0.667   0.693   0.669   0.621   0.647   0.691   0.652   0.658   0.717   0.702   0.696   0.656   0.607   0.660   0.686   0.656   0.618   0.599   0.625   0.600   0.606   0.597   0.611   0.634   0.605   0.623   0.604
    24.25    0.716   0.696   0.651   0.621   0.690   0.627   0.608   0.650   0.683   0.705   0.675   0.691   0.644   0.648   0.617   0.681   0.659   0.733   0.729   0.701   0.643   0.628   0.678   0.668   0.670   0.643   0.625   0.643   0.587   0.557   0.538   0.591   0.608   0.593   0.573
    19.60    0.681   0.633   0.649   0.657   0.652   0.632   0.633   0.642   0.673   0.683   0.679   0.654   0.616   0.564   0.613   0.642   0.661   0.694   0.692   0.672   0.651   0.682   0.665   0.690   0.719   0.694   0.651   0.630   0.620   0.568   0.540   0.593   0.566   0.553   0.622
    14.95    0.642   0.623   0.614   0.582   0.595   0.664   0.610   0.630   0.610   0.641   0.691   0.693   0.667   0.555   0.586   0.566   0.594   0.612   0.639   0.656   0.673   0.711   0.700   0.634   0.660   0.700   0.699   0.632   0.655   0.576   0.575   0.574   0.573   0.567   0.606
    10.30    0.630   0.583   0.582   0.587   0.629   0.632   0.617   0.581   0.600   0.571   0.620   0.611   0.592   0.538   0.527   0.544   0.556   0.563   0.550   0.631   0.655   0.683   0.603   0.637   0.608   0.646   0.643   0.653   0.615   0.618   0.567   0.521   0.517   0.582   0.628
     5.65    0.649   0.588   0.548   0.572   0.575   0.557   0.512   0.541   0.537   0.564   0.566   0.525   0.550   0.525   0.523   0.524   0.492   0.525   0.569   0.605   0.613   0.631   0.576   0.627   0.662   0.596   0.603   0.626   0.559   0.568   0.528   0.504   0.544   0.570   0.613
     1.00    0.605   0.602   0.543   0.545   0.515   0.536   0.466   0.518   0.499   0.537   0.548   0.543   0.540   0.542   0.481   0.468   0.490   0.500   0.527   0.562   0.558   0.577   0.546   0.587   0.632   0.576   0.593   0.556   0.531   0.495   0.538   0.540   0.564   0.539   0.547

   Height   Standard deviation at grid points for the v component:
   168.40    0.384   0.392   0.379   0.385   0.379   0.388   0.403   0.399   0.395   0.414   0.404   0.418   0.431   0.441   0.445   0.435   0.441   0.434   0.449   0.418   0.403   0.398   0.408   0.388   0.393   0.397   0.404   0.423   0.415   0.431   0.419   0.429   0.433   0.450   0.460
   163.75    0.403   0.364   0.366   0.379   0.382   0.387   0.397   0.398   0.398   0.405   0.405   0.431   0.435   0.427   0.434   0.454   0.447   0.426   0.446   0.425   0.426   0.419   0.398   0.379   0.387   0.400   0.425   0.440   0.430   0.427   0.424   0.424   0.429   0.443   0.464
   159.10    0.402   0.381   0.363   0.366   0.377   0.396   0.396   0.402   0.397   0.387   0.407   0.416   0.430   0.432   0.439   0.449   0.450   0.429   0.441   0.418   0.425   0.421   0.419   0.396   0.390   0.391   0.427   0.444   0.447   0.439   0.427   0.418   0.414   0.419   0.428
   154.45    0.394   0.381   0.390   0.366   0.377   0.386   0.402   0.409   0.388   0.400   0.391   0.407   0.431   0.427   0.450   0.459   0.441   0.432   0.445   0.430   0.420   0.423   0.411   0.390   0.413   0.411   0.432   0.439   0.445   0.446   0.423   0.427   0.428   0.421   0.430
   149.80    0.431   0.415   0.376   0.394   0.405   0.416   0.404   0.400   0.405   0.403   0.395   0.416   0.416   0.434   0.453   0.464   0.462   0.465   0.461   0.450   0.450   0.417   0.415   0.420   0.438   0.423   0.407   0.426   0.436   0.426   0.417   0.419   0.418   0.442   0.439
   145.15    0.431   0.409   0.405   0.397   0.418   0.415   0.410   0.410   0.423   0.400   0.393   0.426   0.434   0.458   0.448   0.464   0.469   0.487   0.467   0.462   0.449   0.431   0.426   0.429   0.431   0.419   0.422   0.424   0.426   0.406   0.414   0.427   0.429   0.439   0.403
   140.50    0.436   0.402   0.425   0.424   0.406   0.382   0.398   0.417   0.428   0.413   0.417   0.425   0.434   0.447   0.452   0.469   0.470   0.480   0.447   0.465   0.445   0.419   0.414   0.416   0.417   0.417   0.434   0.423   0.424   0.408   0.411   0.427   0.409   0.432   0.393
   135.85    0.438   0.434   0.446   0.421   0.419   0.399   0.403   0.397   0.437   0.433   0.447   0.448   0.451   0.453   0.451   0.438   0.453   0.435   0.425   0.437   0.431   0.427   0.428   0.434   0.438   0.432   0.438   0.411   0.393   0.386   0.410   0.414   0.423   0.393   0.389
   131.20    0.407   0.438   0.431   0.454   0.420   0.412   0.424   0.421   0.411   0.434   0.438   0.448   0.465   0.463   0.444   0.429   0.432   0.415   0.427   0.425   0.435   0.439   0.449   0.447   0.448   0.425   0.442   0.412   0.392   0.389   0.388   0.411   0.396   0.393   0.394
   126.55    0.429   0.435   0.438   0.463   0.455   0.420   0.409   0.416   0.410   0.415   0.428   0.442   0.449   0.457   0.440   0.415   0.418   0.406   0.419   0.420   0.436   0.465   0.447   0.461   0.466   0.432   0.440   0.433   0.428   0.415   0.388   0.379   0.390   0.398   0.412
   121.90    0.438   0.421   0.424   0.442   0.433   0.428   0.414   0.417   0.415   0.410   0.426   0.427   0.432   0.432   0.434   0.414   0.409   0.421   0.407   0.417   0.429   0.458   0.454   0.451   0.438   0.426   0.436   0.417   0.449   0.432   0.388   0.381   0.395   0.387   0.404
   117.25    0.429   0.430   0.434   0.435   0.418   0.420   0.411   0.430   0.432   0.428   0.433   0.422   0.433   0.419   0.427   0.425   0.413   0.408   0.392   0.404   0.435   0.449   0.462   0.469   0.449   0.417   0.424   0.417   0.428   0.416   0.408   0.386   0.409   0.385   0.393
   112.60    0.434   0.430   0.442   0.439   0.421   0.404   0.414   0.407   0.434   0.441   0.429   0.415   0.424   0.429   0.428   0.446   0.439   0.411   0.407   0.428   0.457   0.445   0.446   0.437   0.432   0.401   0.408   0.413   0.419   0.423   0.409   0.397   0.400   0.381   0.394
   107.95    0.449   0.443   0.434   0.448   0.441   0.436   0.415   0.415   0.409   0.424   0.441   0.438   0.444   0.430   0.438   0.430   0.416   0.434   0.441   0.425   0.447   0.455   0.422   0.430   0.439   0.420   0.400   0.401   0.410   0.415   0.407   0.395   0.398   0.389   0.396
   103.30    0.488   0.478   0.444   0.456   0.447   0.453   0.434   0.444   0.416   0.431   0.418   0.437   0.455   0.432   0.405   0.420   0.413   0.438   0.441   0.439   0.443   0.462   0.434   0.426   0.432   0.409   0.420   0.417   0.399   0.419   0.409   0.413   0.392   0.396   0.388
    98.65    0.519   0.513   0.492   0.486   0.451   0.467   0.441   0.438   0.422   0.416   0.422   0.436   0.435   0.440   0.437   0.435   0.429   0.425   0.426   0.434   0.438   0.425   0.425   0.410   0.426   0.438   0.415   0.403   0.415   0.406   0.382   0.412   0.410   0.404   0.395
    94.00    0.505   0.499   0.492   0.473   0.482   0.485   0.481   0.462   0.438   0.433   0.435   0.435   0.454   0.416   0.426   0.413   0.413   0.424   0.413   0.420   0.405   0.421   0.417   0.404   0.413   0.429   0.417   0.420   0.425   0.406   0.405   0.398   0.411   0.424   0.414
    89.35    0.483   0.483   0.476   0.465   0.479   0.478   0.483   0.451   0.430   0.424   0.434   0.437   0.435   0.439   0.431   0.418   0.409   0.409   0.405   0.410   0.426   0.441   0.420   0.430   0.415   0.439   0.417   0.425   0.411   0.402   0.405   0.391   0.401   0.395   0.399
    84.70    0.471   0.488   0.463   0.438   0.472   0.456   0.483   0.459   0.466   0.428   0.449   0.432   0.418   0.440   0.449   0.431   0.425   0.421   0.424   0.440   0.437   0.428   0.419   0.420   0.418   0.420   0.405   0.404   0.395   0.403   0.388   0.407   0.385   0.371   0.391
    80.05    0.488   0.467   0.439   0.437   0.443   0.437   0.461   0.462   0.461   0.445   0.431   0.440   0.448   0.465   0.472   0.463   0.436   0.427   0.434   0.434   0.429   0.423   0.395   0.399   0.402   0.408   0.380   0.409   0.409   0.420   0.407   0.397   0.392   0.399   0.392
    75.40    0.466   0.467   0.459   0.462   0.446   0.437   0.453   0.469   0.444   0.446   0.437   0.435   0.452   0.454   0.455   0.459   0.430   0.405   0.415   0.418   0.412   0.418   0.404   0.394   0.403   0.374   0.400   0.397   0.400   0.410   0.421   0.418   0.398   0.376   0.383
    70.75    0.456   0.459   0.454   0.449   0.455   0.446   0.454   0.460   0.448   0.438   0.423   0.428   0.448   0.461   0.455   0.434   0.418   0.411   0.391   0.383   0.398   0.384   0.398   0.371   0.407   0.388   0.407   0.393   0.412   0.414   0.419   0.417   0.402   0.390   0.385
    66.10    0.455   0.438   0.447   0.450   0.435   0.443   0.438   0.467   0.460   0.437   0.419   0.430   0.453   0.439   0.439   0.423   0.424   0.416   0.394   0.384   0.414   0.392   0.403   0.408   0.382   0.398   0.388   0.410   0.402   0.413   0.393   0.380   0.400   0.386   0.381
    61.45    0.443   0.445   0.444   0.451   0.425   0.421   0.436   0.443   0.451   0.435   0.432   0.457   0.453   0.415   0.440   0.409   0.403   0.397   0.393   0.400   0.394   0.420   0.418   0.401   0.399   0.394   0.385   0.392   0.408   0.396   0.409   0.417   0.398   0.386   0.381
    56.80    0.451   0.452   0.453   0.440   0.423   0.420   0.434   0.439   0.434   0.430   0.447   0.454   0.463   0.441   0.436   0.420   0.417   0.402   0.371   0.379   0.390   0.408   0.412   0.396   0.401   0.401   0.389   0.392   0.376   0.389   0.400   0.393   0.397   0.391   0.375
    52.15    0.445   0.450   0.459   0.449   0.442   0.420   0.414   0.416   0.431   0.421   0.442   0.438   0.449   0.442   0.441   0.429   0.415   0.399   0.402   0.388   0.386   0.394   0.403   0.401   0.406   0.387   0.392   0.396   0.389   0.374   0.387   0.390   0.372   0.381   0.365
    47.50    0.472   0.443   0.444   0.443   0.435   0.428   0.403   0.406   0.431   0.424   0.459   0.462   0.468   0.448   0.408   0.417   0.411   0.398   0.406   0.410   0.403   0.407   0.428   0.398   0.408   0.390   0.394   0.396   0.396   0.386   0.392   0.358   0.364   0.384   0.383
    42.85    0.465   0.463   0.444   0.463   0.436   0.444   0.414   0.428   0.453   0.458   0.462   0.459   0.464   0.457   0.445   0.448   0.455   0.425   0.432   0.423   0.438   0.433   0.438   0.419   0.408   0.403   0.407   0.401   0.409   0.390   0.386   0.370   0.362   0.382   0.365
    38.20    0.472   0.464   0.454   0.459   0.439   0.453   0.422   0.425   0.451   0.460   0.464   0.473   0.465   0.471   0.472   0.439   0.446   0.451   0.447   0.435   0.435   0.430   0.419   0.417   0.405   0.403   0.402   0.425   0.400   0.395   0.383   0.374   0.369   0.374   0.374
    33.55    0.477   0.446   0.460   0.454   0.451   0.441   0.440   0.417   0.452   0.460   0.481   0.487   0.476   0.461   0.465   0.463   0.464   0.450   0.453   0.449   0.458   0.453   0.431   0.423   0.419   0.395   0.417   0.415   0.384   0.376   0.390   0.391   0.404   0.398   0.383
    28.90    0.460   0.454   0.448   0.449   0.450   0.444   0.421   0.425   0.447   0.456   0.468   0.488   0.497   0.498   0.482   0.457   0.478   0.486   0.468   0.456   0.463   0.460   0.456   0.445   0.417   0.396   0.408   0.441   0.391   0.390   0.404   0.400   0.401   0.397   0.401
    24.25    0.442   0.455   0.447   0.442   0.453   0.462   0.457   0.462   0.467   0.479   0.475   0.462   0.493   0.499   0.490   0.489   0.492   0.487   0.466   0.453   0.446   0.446   0.450   0.450   0.418   0.422   0.415   0.412   0.409   0.409   0.417   0.403   0.403   0.405   0.407
    19.60    0.441   0.457   0.458   0.435   0.459   0.446   0.459   0.453   0.481   0.452   0.483   0.489   0.500   0.498   0.492   0.468   0.478   0.469   0.458   0.449   0.440   0.431   0.440   0.428   0.434   0.430   0.443   0.429   0.405   0.414   0.415   0.416   0.394   0.397   0.408
    14.95    0.451   0.470   0.457   0.460   0.457   0.488   0.480   0.466   0.477   0.461   0.480   0.484   0.479   0.478   0.466   0.461   0.478   0.471   0.438   0.419   0.441   0.415   0.408   0.405   0.410   0.418   0.412   0.411   0.391   0.395   0.407   0.393   0.380   0.381   0.395
    10.30    0.436   0.441   0.466   0.470   0.467   0.464   0.464   0.461   0.481   0.467   0.459   0.454   0.471   0.458   0.448   0.450   0.476   0.445   0.418   0.418   0.427   0.414   0.408   0.412   0.418   0.391   0.380   0.404   0.389   0.405   0.382   0.370   0.387   0.386   0.395
     5.65    0.438   0.453   0.428   0.438   0.444   0.456   0.454   0.454   0.448   0.461   0.467   0.441   0.442   0.428   0.431   0.426   0.448   0.436   0.430   0.421   0.410   0.420   0.414   0.434   0.410   0.409   0.381   0.394   0.396   0.392   0.373   0.378   0.378   0.403   0.408
     1.00    0.441   0.423   0.429   0.416   0.429   0.447   0.428   0.433   0.432   0.441   0.431   0.440   0.445   0.451   0.422   0.415   0.407   0.422   0.424   0.434   0.420   0.420   0.431   0.439   0.410   0.387   0.403   0.380   0.405   0.410   0.392   0.407   0.403   0.430   0.429

   Height   Standard deviation at grid points for the w component:
   168.40    0.287   0.298   0.297   0.298   0.289   0.296   0.287   0.282   0.283   0.284   0.276   0.285   0.266   0.261   0.275   0.282   0.282   0.291   0.296   0.286   0.286   0.284   0.280   0.270   0.273   0.286   0.289   0.286   0.278   0.271   0.278   0.283   0.293   0.288   0.287
   163.75    0.286   0.305   0.286   0.294   0.285   0.291   0.287   0.283   0.270   0.279   0.271   0.287   0.274   0.270   0.271   0.275   0.287   0.284   0.280   0.276   0.279   0.273   0.277   0.283   0.272   0.286   0.291   0.281   0.276   0.265   0.279   0.288   0.284   0.289   0.293
   159.10    0.289   0.285   0.288   0.299   0.290   0.294   0.290   0.292   0.281   0.274   0.274   0.288   0.277   0.279   0.274   0.273   0.272   0.268   0.275   0.277   0.283   0.272   0.277   0.273   0.278   0.287   0.290   0.292   0.286   0.268   0.277   0.284   0.279   0.280   0.282
   154.45    0.274   0.289   0.284   0.289   0.291   0.295   0.278   0.279   0.275   0.276   0.272   0.274   0.270   0.268   0.275   0.269   0.264   0.261   0.273   0.284   0.281   0.280   0.280   0.276   0.287   0.290   0.298   0.291   0.282   0.282   0.274   0.280   0.274   0.264   0.274
   149.80    0.281   0.285   0.293   0.289   0.283   0.279   0.269   0.278   0.283   0.277   0.280   0.285   0.272   0.270   0.268   0.266   0.265   0.272   0.269   0.279   0.290   0.279   0.281   0.280   0.273   0.276   0.286   0.285   0.277   0.290   0.289   0.286   0.277   0.279   0.275
   145.15    0.281   0.278   0.288   0.287   0.281   0.272   0.264   0.280   0.281   0.278   0.280   0.276   0.279   0.272   0.265   0.266   0.265   0.264   0.267   0.282   0.289   0.287   0.284   0.274   0.273   0.266   0.280   0.281   0.283   0.281   0.282   0.274   0.280   0.287   0.289
   140.50    0.277   0.271   0.275   0.271   0.270   0.264   0.263   0.272   0.286   0.282   0.281   0.281   0.265   0.270   0.274   0.273   0.268   0.264   0.275   0.280   0.279   0.284   0.284   0.273   0.274   0.282   0.275   0.281   0.276   0.276   0.280   0.270   0.276   0.279   0.286
   135.85    0.274   0.277   0.269   0.270   0.263   0.262   0.272   0.271   0.281   0.286   0.275   0.284   0.277   0.270   0.268   0.274   0.264   0.265   0.280   0.280   0.272   0.287   0.291   0.280   0.275   0.274   0.272   0.284   0.271   0.269   0.273   0.270   0.277   0.285   0.282
   131.20    0.279   0.282   0.283   0.284   0.272   0.266   0.268   0.274   0.283   0.276   0.279   0.275   0.282   0.274   0.267   0.272   0.276   0.275   0.264   0.273   0.280   0.280   0.280   0.280   0.278   0.268   0.260   0.271   0.272   0.272   0.277   0.281   0.276   0.285   0.282
   126.55    0.284   0.278   0.273   0.276   0.274   0.273   0.263   0.270   0.274   0.272   0.270   0.267   0.280   0.275   0.268   0.280   0.278   0.273   0.278   0.279   0.281   0.273   0.282   0.276   0.270   0.269   0.262   0.266   0.265   0.269   0.266   0.269   0.265   0.279   0.279
   121.90    0.276   0.269   0.274   0.272   0.279   0.269   0.274   0.278   0.281   0.272   0.277   0.274   0.274   0.279   0.268   0.281   0.287   0.282   0.270   0.282   0.280   0.279   0.289   0.282   0.275   0.267   0.266   0.264   0.272   0.270   0.264   0.263   0.266   0.278   0.283
   117.25    0.270   0.277   0.269   0.273   0.276   0.276   0.280   0.281   0.283   0.271   0.271   0.274   0.273   0.270   0.276   0.274   0.276   0.273   0.267   0.278   0.283   0.285   0.280   0.273   0.280   0.275   0.262   0.273   0.287   0.275   0.261   0.261   0.265   0.263   0.272
   112.60    0.273   0.281   0.282   0.276   0.273   0.268   0.275   0.282   0.283   0.279   0.269   0.289   0.288   0.277   0.267   0.266   0.277   0.275   0.265   0.273   0.284   0.277   0.280   0.272   0.279   0.275   0.276   0.278   0.292   0.286   0.279   0.256   0.260   0.267   0.276
   107.95    0.285   0.285   0.296   0.288   0.280   0.285   0.273   0.287   0.287   0.260   0.271   0.290   0.279   0.268   0.276   0.278   0.279   0.277   0.272   0.273   0.278   0.280   0.277   0.269   0.265   0.276   0.280   0.276   0.286   0.290   0.283   0.272   0.277   0.270   0.278
   103.30    0.285   0.287   0.287   0.286   0.273   0.280   0.271   0.287   0.284   0.270   0.270   0.277   0.277   0.269   0.276   0.279   0.272   0.276   0.271   0.271   0.278   0.263   0.265   0.265   0.266   0.261   0.271   0.272   0.273   0.274   0.277   0.273   0.279   0.288   0.278
    98.65    0.283   0.282   0.286   0.283   0.276   0.287   0.277   0.278   0.278   0.275   0.281   0.279   0.281   0.281   0.279   0.276   0.272   0.281   0.274   0.266   0.265   0.268   0.264   0.269   0.268   0.263   0.266   0.267   0.269   0.274   0.272   0.274   0.278   0.280   0.278
    94.00    0.289   0.276   0.278   0.272   0.278   0.289   0.284   0.273   0.281   0.282   0.276   0.273   0.268   0.279   0.277   0.285   0.287   0.284   0.277   0.278   0.264   0.267   0.265   0.269   0.275   0.276   0.271   0.274   0.284   0.276   0.278   0.272   0.275   0.278   0.266
    89.35    0.288   0.286   0.280   0.272   0.270   0.277   0.275   0.283   0.281   0.277   0.277   0.271   0.280   0.271   0.271   0.274   0.285   0.289   0.277   0.277   0.260   0.261   0.269   0.269   0.268   0.267   0.274   0.273   0.274   0.265   0.271   0.281   0.277   0.269   0.279
    84.70    0.295   0.293   0.286   0.275   0.274   0.271   0.273   0.288   0.284   0.286   0.277   0.272   0.277   0.275   0.277   0.273   0.281   0.282   0.276   0.272   0.264   0.268   0.273   0.279   0.276   0.281   0.268   0.271   0.263   0.270   0.275   0.271   0.273   0.278   0.274
    80.05    0.284   0.283   0.276   0.268   0.275   0.281   0.272   0.285   0.280   0.279   0.283   0.279   0.275   0.277   0.273   0.282   0.280   0.274   0.278   0.278   0.267   0.260   0.266   0.269   0.275   0.274   0.276   0.269   0.269   0.273   0.270   0.279   0.280   0.284   0.280
    75.40    0.286   0.269   0.271   0.278   0.279   0.292   0.283   0.285   0.285   0.269   0.273   0.267   0.275   0.284   0.288   0.281   0.286   0.281   0.275   0.265   0.265   0.265   0.276   0.274   0.271   0.271   0.280   0.275   0.274   0.280   0.276   0.277   0.281   0.283   0.277
    70.75    0.281   0.277   0.265   0.272   0.277   0.288   0.288   0.280   0.271   0.270   0.272   0.268   0.266   0.267   0.281   0.287   0.274   0.271   0.270   0.259   0.254   0.258   0.275   0.269   0.279   0.279   0.274   0.279   0.277   0.278   0.281   0.266   0.279   0.283   0.262
    66.10    0.272   0.272   0.273   0.274   0.276   0.278   0.271   0.279   0.266   0.270   0.262   0.267   0.266   0.270   0.274   0.265   0.267   0.273   0.265   0.264   0.264   0.272   0.278   0.275   0.283   0.275   0.275   0.276   0.280   0.285   0.287   0.283   0.280   0.285   0.272
    61.45    0.273   0.272   0.271   0.274   0.271   0.279   0.277   0.286   0.274   0.269   0.269   0.256   0.261   0.263   0.264   0.263   0.271   0.271   0.266   0.268   0.264   0.269   0.269   0.271   0.257   0.270   0.275   0.277   0.274   0.283   0.296   0.290   0.271   0.279   0.273
    56.80    0.266   0.273   0.273   0.279   0.277   0.274   0.280   0.287   0.285   0.276   0.271   0.267   0.261   0.269   0.262   0.258   0.268   0.266   0.275   0.268   0.265   0.271   0.264   0.257   0.265   0.269   0.271   0.284   0.282   0.286   0.290   0.282   0.273   0.276   0.272
    52.15    0.281   0.281   0.278   0.269   0.280   0.285   0.287   0.286   0.281   0.275   0.274   0.274   0.278   0.280   0.276   0.263   0.265   0.274   0.275   0.275   0.265   0.277   0.263   0.262   0.269   0.288   0.283   0.285   0.277   0.283   0.287   0.287   0.279   0.284   0.287
    47.50    0.285   0.281   0.286   0.270   0.268   0.279   0.274   0.281   0.278   0.273   0.275   0.270   0.274   0.283   0.276   0.266   0.278   0.274   0.268   0.275   0.272   0.269   0.269   0.271   0.281   0.287   0.285   0.287   0.284   0.286   0.292   0.283   0.281   0.288   0.297
    42.85    0.273   0.279   0.280   0.271   0.281   0.265   0.272   0.277   0.275   0.276   0.269   0.271   0.274   0.282   0.264   0.269   0.277   0.287   0.278   0.282   0.279   0.280   0.272   0.276   0.288   0.284   0.290   0.288   0.280   0.285   0.299   0.279   0.289   0.282   0.289
    38.20    0.286   0.278   0.269   0.269   0.277   0.269   0.276   0.276   0.274   0.267   0.274   0.287   0.281   0.273   0.262   0.272   0.281   0.278   0.280   0.283   0.287   0.280   0.288   0.288   0.293   0.303   0.295   0.284   0.278   0.285   0.288   0.291   0.278   0.281   0.286
    33.55    0.280   0.277   0.277   0.270   0.269   0.274   0.284   0.287   0.277   0.273   0.279   0.279   0.284   0.273   0.264   0.264   0.281   0.279   0.290   0.294   0.296   0.286   0.284   0.285   0.281   0.289   0.278   0.281   0.274   0.279   0.284   0.296   0.287   0.281   0.289
    28.90    0.278   0.276   0.280   0.281   0.268   0.266   0.275   0.280   0.277   0.278   0.283   0.294   0.288   0.283   0.275   0.264   0.276   0.269   0.295   0.290   0.292   0.296   0.291   0.292   0.284   0.285   0.286   0.280   0.289   0.282   0.292   0.283   0.283   0.274   0.276
    24.25    0.270   0.276   0.274   0.279   0.270   0.267   0.277   0.281   0.288   0.291   0.276   0.278   0.290   0.293   0.279   0.279   0.256   0.259   0.280   0.291   0.290   0.288   0.288   0.292   0.276   0.286   0.283   0.280   0.287   0.287   0.285   0.291   0.274   0.269   0.271
    19.60    0.266   0.272   0.272   0.280   0.286   0.277   0.279   0.285   0.279   0.286   0.284   0.284   0.287   0.286   0.277   0.274   0.271   0.274   0.271   0.290   0.290   0.281   0.282   0.284   0.272   0.287   0.295   0.287   0.272   0.278   0.291   0.284   0.276   0.271   0.264
    14.95    0.275   0.277   0.280   0.287   0.288   0.283   0.277   0.281   0.288   0.284   0.291   0.295   0.290   0.279   0.285   0.277   0.271   0.282   0.280   0.283   0.289   0.278   0.283   0.279   0.289   0.290   0.293   0.294   0.281   0.272   0.276   0.277   0.271   0.275   0.274
    10.30    0.284   0.279   0.281   0.280   0.285   0.291   0.281   0.283   0.283   0.280   0.286   0.284   0.273   0.285   0.294   0.280   0.284   0.281   0.284   0.280   0.276   0.288   0.274   0.275   0.280   0.290   0.288   0.284   0.280   0.275   0.269   0.280   0.287   0.272   0.275
     5.65    0.284   0.276   0.284   0.284   0.281   0.282   0.278   0.269   0.273   0.283   0.279   0.283   0.280   0.275   0.281   0.275   0.289   0.286   0.284   0.278   0.279   0.285   0.277   0.264   0.276   0.293   0.290   0.274   0.274   0.267   0.265   0.271   0.275   0.270   0.259
     1.00    0.280   0.274   0.281   0.283   0.286   0.279   0.278   0.273   0.271   0.278   0.283   0.270   0.265   0.269   0.278   0.286   0.289   0.281   0.293   0.288   0.288   0.291   0.283   0.292   0.281   0.290   0.282   0.285   0.265   0.268   0.264   0.267   0.277   0.272   0.265

   Mean standard deviation across all grid points:
      u component:    0.638 m/s
      v component:    0.426 m/s
      w component:    0.277 m/s


U-component (X) statistics from the interpolated hub point:

   Mean =   9.9913 m/s
   TI   =   5.7849 %


Processing complete.  6655.3 CPU seconds used.
