
This summary file was generated by TurbSim (from OpenFAST-v3.5.3) on 20-Apr-2025 at 05:01:38.


Runtime Options:

**********  Random seed #1
    RANLUX  Type of random number generator
         F  Output binary HH turbulence parameters?
         F  Output formatted turbulence parameters?
         F  Output AeroDyn HH files?
         T  Output AeroDyn FF files?
         F  Output BLADED FF files?
         F  Output tower data?
         F  Output HAWC FF files?
         F  Output formatted FF files?
         T  Output coherent turbulence time step file?
 0 -  NONE  IEC turbulence models scaled to exact specified standard deviation


Turbine/Model Specifications:

        37  Vertical grid-point matrix dimension
        35  Horizontal grid-point matrix dimension
     0.250  Time step [seconds]
   900.000  Analysis time [seconds]
   900.000  Usable output time [seconds]
    89.350  Hub height [m]
   167.400  Grid height [m]
   158.100  Grid width [m]
     0.000  Vertical flow angle [degrees]
     0.000  Horizontal flow angle [degrees]


Meteorological Boundary Conditions:

    TIMESR  User-input time series spectral model
       N/A  IEC standard
       N/A  IEC turbulence characteristic
       N/A  IEC turbulence type
       N/A  IEC Extreme Turbulence Model (ETM) "c" parameter [m/s]
       PL   Wind profile type
    90.000  Reference height [m]
    10.000  Reference wind speed [m/s]
       N/A  Jet height [m]
     0.120  Power law exponent
     0.030  Surface roughness length [m]


Non-IEC Meteorological Boundary Conditions:

    45.000  Site latitude [degrees]
     0.050  Gradient Richardson number
     0.480  Friction or shear velocity [m/s]
       N/A  Mixing layer depth [m]
       N/A  Mean hub u'w' Reynolds stress
       N/A  Mean hub u'v' Reynolds stress
       N/A  Mean hub v'w' Reynolds stress


Spatial Coherence Models:

       IEC  u-component coherence model
       IEC  v-component coherence model
       IEC  w-component coherence model
(   12.000, 0.353E-03)  u-component coherence parameters
(   12.000, 0.353E-03)  v-component coherence parameters
(   12.000, 0.353E-03)  w-component coherence parameters
       N/A  Coherence exponent


Coherent Turbulence Scaling Parameters:

.\EventData
            Name of the path containing the coherent turbulence data files
       les  Type of coherent turbulence data files
     1.000  Disturbance scale (ratio of wave height to rotor diameter)
     0.500  Fractional location of tower centerline from right
     0.500  Fractional location of hub height from the bottom of the dataset
    30.000  Minimum start time for coherent structures [seconds]


Profiles from User-Defined Time-Series Input:

  Height   Wind Speed   Horizontal Angle   Vertical Angle
   (m)        (m/s)          (deg)              (deg)    
  ------   ----------   ----------------   --------------
   94.00      10.00          -0.63                0.00


You have requested that the following file(s) be generated:

   /kfs3/scratch/agupta/Projects/RL_Incubator/FinalRuns_Veer/Seed4/./FFSim_Seed4/Cond00_v10.0_PL0.12_TI5.0/Case1_wdirp02/Seed_2/TurbSim/HighT2.bts (AeroDyn/TurbSim full-field wind file)


Turbulence Simulation Scaling Parameter Summary:

   Turbulence model used                            =  User-input time series
   Gradient Richardson number                       =    0.050
   Monin-Obukhov (M-O) z/L parameter                =    0.067
   Monin-Obukhov (M-O) length scale                 = 1340.250 m
   Mean wind speed at hub height                    =    9.991 m/s

   Wind profile type                                =  Power law
   Power law exponent                               =    0.120
   Mean shear across rotor disk                     =    0.019 (m/s)/m
   Assumed rotor diameter                           =  158.100 m
   Surface roughness length                         =    0.030 m

   Nyquist frequency of turbulent wind field        =    2.000 Hz

   Number of time steps in the FFT                  =     3600
   Number of time steps output                      =     3600
   Number of points simulated                       =     1296


Mean Flow Angles:

   Vertical   =   0.0 degrees
   Horizontal =   0.0 degrees

Mean Wind Speed Profile:

   Height    Wind Speed   Horizontal Angle  Vertical Angle  U-comp (X)   V-comp (Y)   W-comp (Z)
     (m)        (m/s)         (degrees)       (degrees)       (m/s)        (m/s)        (m/s)   
   ------    ----------   ----------------  --------------  ----------   ----------   ----------
    168.4       10.78            0.00            0.00         10.78         0.00         0.00
    163.7       10.74            0.00            0.00         10.74         0.00         0.00
    159.1       10.71            0.00            0.00         10.71         0.00         0.00
    154.4       10.67            0.00            0.00         10.67         0.00         0.00
    149.8       10.63            0.00            0.00         10.63         0.00         0.00
    145.1       10.59            0.00            0.00         10.59         0.00         0.00
    140.5       10.55            0.00            0.00         10.55         0.00         0.00
    135.8       10.51            0.00            0.00         10.51         0.00         0.00
    131.2       10.46            0.00            0.00         10.46         0.00         0.00
    126.5       10.42            0.00            0.00         10.42         0.00         0.00
    121.9       10.37            0.00            0.00         10.37         0.00         0.00
    117.2       10.32            0.00            0.00         10.32         0.00         0.00
    112.6       10.27            0.00            0.00         10.27         0.00         0.00
    107.9       10.22            0.00            0.00         10.22         0.00         0.00
    103.3       10.17            0.00            0.00         10.17         0.00         0.00
     98.6       10.11            0.00            0.00         10.11         0.00         0.00
     94.0       10.05            0.00            0.00         10.05         0.00         0.00
     89.3        9.99            0.00            0.00          9.99         0.00         0.00
     84.7        9.93            0.00            0.00          9.93         0.00         0.00
     80.0        9.86            0.00            0.00          9.86         0.00         0.00
     75.4        9.79            0.00            0.00          9.79         0.00         0.00
     70.7        9.72            0.00            0.00          9.72         0.00         0.00
     66.1        9.64            0.00            0.00          9.64         0.00         0.00
     61.4        9.55            0.00            0.00          9.55         0.00         0.00
     56.8        9.46            0.00            0.00          9.46         0.00         0.00
     52.1        9.37            0.00            0.00          9.37         0.00         0.00
     47.5        9.26            0.00            0.00          9.26         0.00         0.00
     42.8        9.15            0.00            0.00          9.15         0.00         0.00
     38.2        9.02            0.00            0.00          9.02         0.00         0.00
     33.5        8.88            0.00            0.00          8.88         0.00         0.00
     28.9        8.73            0.00            0.00          8.73         0.00         0.00
     24.2        8.54            0.00            0.00          8.54         0.00         0.00
     19.6        8.33            0.00            0.00          8.33         0.00         0.00
     14.9        8.06            0.00            0.00          8.06         0.00         0.00
     10.3        7.71            0.00            0.00          7.71         0.00         0.00
      5.6        7.17            0.00            0.00          7.17         0.00         0.00
      1.0        5.83            0.00            0.00          5.83         0.00         0.00


Harvested Random Seeds after Generation of the Random Numbers:

     65026800 K 1
            0 K 2


Hub-Height Simulated Turbulence Statistical Summary:

   Type of Wind        Min (m/s)   Mean (m/s)    Max (m/s)  Sigma (m/s)       TI (%)
   ----------------    ---------   ----------    ---------  -----------       ------
   Longitudinal (u)         8.45         9.99        11.58        0.501        5.011
   Lateral (v)             -1.20         0.00         1.35        0.327        3.276
   Vertical (w)            -0.74         0.00         0.77        0.230        2.300
   U component              8.45         9.99        11.58        0.501        5.011
   V component             -1.20         0.00         1.35        0.327        3.276
   W component             -0.74         0.00         0.77        0.230        2.300
   Horizontal (U&V)         8.45        10.00        11.59        0.501        5.013
   Total                    8.45        10.00        11.59        0.501        5.010

                       Min Reynolds     Mean Reynolds    Max Reynolds    Correlation
   Product             Stress (m/s)^2   Stress (m/s)^2   Stress (m/s)^2  Coefficient
   ----------------    --------------   --------------   --------------  -----------
   u'w'                     -0.652             0.001             0.612         0.011
   u'v'                     -1.090            -0.025             0.836        -0.152
   v'w'                     -0.527             0.006             0.502         0.079


   Friction Velocity (Ustar)  =      0.036 m/s
   Maximum Instantaneous TKE  =      1.354 (m/s)^2
   Maximum Instantaneous CTKE =      0.546 (m/s)^2


Grid Point Variance Summary:

   Y-coord  -79.05  -74.40  -69.75  -65.10  -60.45  -55.80  -51.15  -46.50  -41.85  -37.20  -32.55  -27.90  -23.25  -18.60  -13.95   -9.30   -4.65    0.00    4.65    9.30   13.95   18.60   23.25   27.90   32.55   37.20   41.85   46.50   51.15   55.80   60.45   65.10   69.75   74.40   79.05

   Height   Standard deviation at grid points for the u component:
   168.40    0.402   0.410   0.438   0.457   0.440   0.428   0.442   0.419   0.436   0.450   0.479   0.499   0.480   0.476   0.448   0.465   0.476   0.492   0.503   0.507   0.524   0.556   0.539   0.552   0.552   0.572   0.589   0.530   0.560   0.560   0.604   0.604   0.543   0.525   0.549
   163.75    0.414   0.436   0.435   0.446   0.429   0.414   0.428   0.380   0.411   0.434   0.465   0.478   0.505   0.466   0.457   0.483   0.512   0.502   0.494   0.500   0.538   0.528   0.555   0.545   0.519   0.528   0.539   0.556   0.572   0.561   0.571   0.577   0.572   0.546   0.585
   159.10    0.399   0.420   0.449   0.430   0.448   0.413   0.433   0.407   0.448   0.443   0.454   0.499   0.481   0.473   0.472   0.513   0.505   0.498   0.480   0.500   0.531   0.575   0.560   0.502   0.520   0.542   0.546   0.561   0.563   0.518   0.538   0.519   0.509   0.547   0.571
   154.45    0.431   0.433   0.441   0.462   0.475   0.474   0.444   0.423   0.435   0.451   0.456   0.467   0.498   0.506   0.490   0.528   0.511   0.508   0.487   0.506   0.556   0.543   0.549   0.508   0.533   0.541   0.551   0.551   0.549   0.550   0.532   0.528   0.547   0.518   0.557
   149.80    0.465   0.489   0.488   0.507   0.469   0.464   0.451   0.444   0.412   0.428   0.472   0.477   0.511   0.511   0.462   0.530   0.531   0.552   0.519   0.509   0.543   0.527   0.513   0.494   0.530   0.528   0.549   0.585   0.552   0.564   0.535   0.505   0.508   0.528   0.532
   145.15    0.506   0.485   0.514   0.502   0.491   0.479   0.474   0.450   0.435   0.422   0.448   0.486   0.526   0.542   0.486   0.538   0.561   0.562   0.531   0.527   0.528   0.505   0.477   0.502   0.508   0.557   0.576   0.569   0.560   0.596   0.568   0.510   0.512   0.532   0.530
   140.50    0.457   0.481   0.473   0.495   0.503   0.499   0.488   0.451   0.452   0.445   0.479   0.505   0.520   0.539   0.520   0.519   0.567   0.569   0.553   0.588   0.531   0.533   0.561   0.530   0.556   0.553   0.554   0.584   0.576   0.604   0.585   0.549   0.529   0.549   0.542
   135.85    0.477   0.467   0.469   0.477   0.468   0.508   0.503   0.456   0.430   0.446   0.491   0.494   0.507   0.512   0.559   0.560   0.577   0.570   0.587   0.616   0.580   0.594   0.567   0.579   0.593   0.537   0.566   0.554   0.537   0.552   0.567   0.534   0.566   0.539   0.539
   131.20    0.494   0.474   0.485   0.452   0.490   0.503   0.505   0.470   0.425   0.464   0.504   0.495   0.505   0.527   0.503   0.521   0.593   0.607   0.577   0.603   0.646   0.594   0.597   0.563   0.551   0.571   0.549   0.565   0.571   0.525   0.545   0.532   0.527   0.535   0.527
   126.55    0.510   0.502   0.485   0.500   0.476   0.500   0.503   0.464   0.450   0.466   0.475   0.499   0.518   0.519   0.526   0.571   0.616   0.611   0.620   0.622   0.614   0.601   0.608   0.583   0.530   0.555   0.551   0.550   0.559   0.517   0.558   0.558   0.551   0.560   0.513
   121.90    0.501   0.538   0.501   0.486   0.444   0.472   0.465   0.487   0.490   0.510   0.504   0.529   0.510   0.515   0.533   0.570   0.622   0.588   0.601   0.621   0.600   0.602   0.625   0.577   0.566   0.569   0.595   0.568   0.576   0.563   0.572   0.602   0.566   0.547   0.528
   117.25    0.540   0.536   0.511   0.483   0.477   0.462   0.488   0.507   0.500   0.515   0.535   0.526   0.485   0.506   0.548   0.548   0.587   0.615   0.615   0.609   0.604   0.606   0.625   0.589   0.578   0.577   0.591   0.565   0.579   0.614   0.603   0.574   0.539   0.546   0.542
   112.60    0.514   0.499   0.483   0.509   0.491   0.504   0.518   0.521   0.518   0.512   0.526   0.525   0.502   0.530   0.528   0.579   0.571   0.564   0.579   0.581   0.578   0.582   0.595   0.601   0.600   0.581   0.588   0.590   0.574   0.555   0.574   0.581   0.540   0.526   0.526
   107.95    0.487   0.502   0.499   0.484   0.502   0.529   0.516   0.508   0.490   0.507   0.511   0.514   0.495   0.518   0.518   0.527   0.539   0.536   0.549   0.571   0.570   0.601   0.570   0.563   0.607   0.628   0.585   0.576   0.550   0.551   0.523   0.564   0.531   0.517   0.535
   103.30    0.479   0.491   0.481   0.502   0.516   0.508   0.507   0.499   0.472   0.508   0.511   0.494   0.489   0.480   0.514   0.499   0.507   0.511   0.516   0.566   0.562   0.560   0.563   0.545   0.585   0.583   0.546   0.517   0.524   0.521   0.550   0.549   0.521   0.535   0.539
    98.65    0.489   0.529   0.503   0.495   0.508   0.503   0.490   0.483   0.485   0.496   0.491   0.484   0.480   0.455   0.471   0.466   0.473   0.479   0.533   0.590   0.585   0.563   0.600   0.560   0.585   0.583   0.526   0.518   0.515   0.546   0.538   0.537   0.536   0.533   0.522
    94.00    0.485   0.501   0.488   0.499   0.501   0.495   0.481   0.482   0.477   0.495   0.473   0.483   0.484   0.456   0.467   0.459   0.491   0.502   0.532   0.561   0.580   0.558   0.582   0.593   0.544   0.499   0.542   0.535   0.534   0.560   0.534   0.557   0.523   0.515   0.519
    89.35    0.475   0.492   0.481   0.467   0.493   0.489   0.471   0.481   0.456   0.472   0.466   0.449   0.466   0.461   0.468   0.463   0.478   0.501   0.488   0.551   0.552   0.577   0.577   0.570   0.553   0.516   0.543   0.538   0.520   0.551   0.565   0.563   0.523   0.519   0.525
    84.70    0.484   0.484   0.483   0.489   0.500   0.488   0.498   0.443   0.432   0.458   0.445   0.459   0.461   0.490   0.479   0.481   0.484   0.506   0.506   0.538   0.557   0.549   0.571   0.576   0.574   0.538   0.526   0.529   0.565   0.565   0.559   0.540   0.520   0.498   0.503
    80.05    0.465   0.476   0.479   0.496   0.518   0.504   0.504   0.479   0.459   0.433   0.443   0.438   0.455   0.476   0.502   0.501   0.514   0.530   0.535   0.585   0.558   0.588   0.584   0.594   0.544   0.556   0.521   0.533   0.535   0.557   0.551   0.528   0.488   0.483   0.505
    75.40    0.479   0.479   0.474   0.485   0.496   0.536   0.518   0.499   0.488   0.469   0.480   0.498   0.504   0.528   0.511   0.527   0.549   0.561   0.561   0.569   0.576   0.585   0.605   0.601   0.592   0.546   0.537   0.562   0.545   0.541   0.549   0.539   0.490   0.501   0.505
    70.75    0.530   0.502   0.480   0.485   0.500   0.515   0.535   0.514   0.502   0.444   0.460   0.493   0.513   0.519   0.531   0.518   0.538   0.566   0.550   0.535   0.552   0.565   0.603   0.615   0.592   0.571   0.555   0.599   0.586   0.567   0.524   0.503   0.511   0.490   0.518
    66.10    0.503   0.514   0.503   0.487   0.489   0.488   0.516   0.492   0.490   0.452   0.459   0.478   0.493   0.498   0.540   0.538   0.565   0.575   0.525   0.526   0.538   0.565   0.583   0.583   0.586   0.542   0.554   0.578   0.584   0.553   0.533   0.500   0.485   0.497   0.514
    61.45    0.471   0.510   0.524   0.508   0.480   0.479   0.514   0.511   0.502   0.481   0.485   0.512   0.528   0.511   0.550   0.578   0.569   0.531   0.558   0.558   0.569   0.585   0.607   0.600   0.569   0.557   0.588   0.574   0.570   0.572   0.543   0.527   0.520   0.491   0.508
    56.80    0.506   0.520   0.541   0.539   0.533   0.506   0.498   0.530   0.538   0.502   0.488   0.488   0.475   0.528   0.548   0.558   0.553   0.568   0.543   0.591   0.616   0.621   0.591   0.603   0.568   0.583   0.564   0.545   0.549   0.543   0.556   0.535   0.513   0.524   0.516
    52.15    0.526   0.539   0.526   0.543   0.534   0.565   0.503   0.530   0.509   0.470   0.502   0.541   0.541   0.545   0.521   0.574   0.584   0.574   0.605   0.622   0.588   0.602   0.616   0.622   0.566   0.590   0.543   0.541   0.564   0.526   0.536   0.536   0.550   0.533   0.519
    47.50    0.516   0.512   0.529   0.564   0.576   0.579   0.534   0.550   0.507   0.538   0.534   0.527   0.542   0.567   0.551   0.588   0.587   0.569   0.588   0.583   0.614   0.600   0.645   0.625   0.565   0.604   0.548   0.541   0.559   0.554   0.562   0.563   0.560   0.566   0.549
    42.85    0.513   0.508   0.511   0.569   0.563   0.500   0.519   0.494   0.532   0.524   0.553   0.563   0.590   0.601   0.573   0.571   0.567   0.570   0.574   0.557   0.584   0.606   0.612   0.602   0.597   0.592   0.572   0.569   0.544   0.565   0.529   0.563   0.572   0.560   0.564
    38.20    0.505   0.493   0.521   0.544   0.534   0.530   0.549   0.533   0.537   0.528   0.556   0.554   0.570   0.596   0.602   0.569   0.556   0.566   0.572   0.537   0.560   0.553   0.572   0.592   0.552   0.545   0.561   0.550   0.548   0.524   0.508   0.538   0.542   0.527   0.563
    33.55    0.510   0.474   0.490   0.514   0.513   0.529   0.551   0.518   0.521   0.514   0.551   0.558   0.550   0.577   0.564   0.579   0.569   0.553   0.570   0.532   0.544   0.517   0.564   0.561   0.556   0.543   0.546   0.540   0.538   0.528   0.492   0.518   0.514   0.526   0.579
    28.90    0.470   0.457   0.481   0.508   0.521   0.535   0.560   0.543   0.551   0.548   0.510   0.514   0.550   0.535   0.537   0.590   0.606   0.581   0.560   0.526   0.538   0.530   0.549   0.523   0.552   0.564   0.518   0.523   0.543   0.517   0.506   0.496   0.518   0.534   0.584
    24.25    0.470   0.440   0.484   0.475   0.530   0.548   0.559   0.555   0.514   0.552   0.504   0.529   0.538   0.514   0.531   0.579   0.579   0.588   0.565   0.566   0.543   0.537   0.576   0.553   0.559   0.555   0.517   0.551   0.524   0.525   0.486   0.516   0.507   0.534   0.545
    19.60    0.452   0.454   0.502   0.476   0.526   0.544   0.547   0.496   0.523   0.518   0.503   0.507   0.521   0.538   0.554   0.549   0.571   0.523   0.567   0.555   0.548   0.543   0.586   0.531   0.527   0.528   0.538   0.539   0.531   0.508   0.511   0.487   0.516   0.534   0.562
    14.95    0.475   0.501   0.503   0.498   0.528   0.535   0.534   0.527   0.489   0.500   0.498   0.525   0.506   0.513   0.488   0.529   0.539   0.533   0.560   0.574   0.552   0.553   0.529   0.547   0.526   0.551   0.552   0.523   0.521   0.532   0.517   0.522   0.552   0.580   0.611
    10.30    0.514   0.489   0.516   0.541   0.515   0.512   0.517   0.498   0.488   0.499   0.485   0.546   0.493   0.481   0.475   0.513   0.511   0.479   0.519   0.543   0.549   0.563   0.535   0.508   0.540   0.567   0.543   0.541   0.533   0.522   0.543   0.569   0.574   0.574   0.585
     5.65    0.519   0.516   0.511   0.526   0.505   0.496   0.460   0.447   0.482   0.515   0.533   0.541   0.519   0.488   0.469   0.470   0.482   0.512   0.510   0.521   0.536   0.545   0.510   0.502   0.546   0.550   0.556   0.545   0.562   0.554   0.537   0.590   0.566   0.560   0.574
     1.00    0.504   0.515   0.503   0.511   0.497   0.468   0.433   0.455   0.458   0.485   0.497   0.486   0.526   0.493   0.466   0.465   0.470   0.514   0.480   0.490   0.476   0.507   0.492   0.514   0.511   0.541   0.553   0.578   0.546   0.537   0.543   0.586   0.536   0.551   0.562

   Height   Standard deviation at grid points for the v component:
   168.40    0.359   0.355   0.369   0.367   0.350   0.360   0.354   0.348   0.364   0.365   0.361   0.366   0.369   0.384   0.370   0.367   0.398   0.381   0.379   0.358   0.344   0.343   0.343   0.355   0.354   0.359   0.366   0.371   0.369   0.349   0.379   0.369   0.392   0.411   0.384
   163.75    0.330   0.351   0.370   0.371   0.363   0.358   0.334   0.341   0.355   0.349   0.367   0.362   0.366   0.374   0.372   0.373   0.386   0.388   0.374   0.339   0.335   0.344   0.325   0.331   0.345   0.340   0.338   0.341   0.345   0.353   0.364   0.372   0.385   0.401   0.401
   159.10    0.333   0.351   0.360   0.374   0.350   0.349   0.326   0.347   0.350   0.361   0.376   0.356   0.341   0.364   0.373   0.367   0.369   0.367   0.344   0.342   0.347   0.333   0.339   0.341   0.357   0.353   0.354   0.350   0.347   0.357   0.354   0.379   0.383   0.399   0.400
   154.45    0.318   0.340   0.360   0.340   0.350   0.350   0.346   0.352   0.364   0.374   0.375   0.365   0.364   0.373   0.381   0.380   0.369   0.346   0.343   0.361   0.353   0.342   0.340   0.345   0.346   0.353   0.358   0.341   0.332   0.350   0.353   0.374   0.398   0.384   0.411
   149.80    0.325   0.317   0.352   0.341   0.351   0.342   0.350   0.336   0.314   0.351   0.356   0.352   0.369   0.375   0.365   0.377   0.361   0.358   0.349   0.350   0.360   0.358   0.361   0.349   0.354   0.369   0.377   0.353   0.352   0.357   0.364   0.395   0.403   0.403   0.396
   145.15    0.324   0.345   0.345   0.346   0.338   0.340   0.326   0.338   0.337   0.345   0.331   0.341   0.343   0.347   0.361   0.368   0.349   0.346   0.368   0.334   0.330   0.367   0.360   0.364   0.353   0.353   0.377   0.354   0.351   0.372   0.384   0.385   0.393   0.409   0.415
   140.50    0.343   0.339   0.340   0.321   0.343   0.325   0.329   0.338   0.337   0.338   0.337   0.332   0.337   0.337   0.322   0.337   0.355   0.364   0.358   0.347   0.332   0.359   0.382   0.369   0.348   0.356   0.371   0.351   0.355   0.370   0.379   0.384   0.375   0.382   0.386
   135.85    0.365   0.363   0.341   0.323   0.317   0.299   0.305   0.321   0.338   0.332   0.339   0.331   0.350   0.329   0.326   0.322   0.344   0.341   0.333   0.344   0.344   0.360   0.375   0.362   0.377   0.376   0.374   0.379   0.372   0.373   0.367   0.349   0.367   0.363   0.367
   131.20    0.353   0.356   0.363   0.339   0.314   0.310   0.310   0.316   0.337   0.327   0.319   0.330   0.344   0.340   0.329   0.340   0.354   0.333   0.331   0.347   0.357   0.371   0.382   0.391   0.379   0.367   0.364   0.392   0.381   0.380   0.366   0.353   0.347   0.358   0.346
   126.55    0.344   0.354   0.353   0.337   0.314   0.323   0.331   0.330   0.317   0.328   0.309   0.332   0.352   0.365   0.351   0.344   0.353   0.340   0.327   0.349   0.360   0.374   0.369   0.386   0.356   0.363   0.385   0.403   0.393   0.369   0.383   0.362   0.346   0.335   0.337
   121.90    0.344   0.362   0.367   0.345   0.338   0.345   0.335   0.323   0.324   0.319   0.322   0.326   0.326   0.353   0.357   0.332   0.345   0.351   0.363   0.388   0.349   0.360   0.367   0.361   0.361   0.358   0.376   0.377   0.392   0.387   0.390   0.340   0.345   0.343   0.358
   117.25    0.344   0.358   0.379   0.372   0.354   0.338   0.340   0.330   0.336   0.318   0.341   0.355   0.361   0.347   0.342   0.350   0.363   0.362   0.374   0.382   0.353   0.364   0.362   0.377   0.376   0.368   0.388   0.366   0.377   0.383   0.367   0.350   0.352   0.351   0.355
   112.60    0.355   0.378   0.377   0.375   0.336   0.325   0.324   0.320   0.325   0.333   0.347   0.347   0.347   0.352   0.338   0.326   0.355   0.370   0.366   0.371   0.364   0.359   0.369   0.369   0.396   0.380   0.404   0.395   0.378   0.374   0.357   0.347   0.357   0.355   0.361
   107.95    0.349   0.362   0.376   0.364   0.349   0.340   0.337   0.325   0.337   0.333   0.346   0.344   0.347   0.346   0.355   0.328   0.363   0.345   0.357   0.368   0.357   0.343   0.359   0.379   0.408   0.391   0.403   0.398   0.373   0.383   0.362   0.386   0.359   0.372   0.369
   103.30    0.348   0.347   0.348   0.357   0.346   0.334   0.320   0.325   0.344   0.351   0.347   0.339   0.314   0.339   0.341   0.343   0.353   0.377   0.370   0.381   0.371   0.360   0.374   0.390   0.400   0.428   0.420   0.427   0.419   0.396   0.395   0.407   0.382   0.366   0.342
    98.65    0.369   0.340   0.340   0.337   0.334   0.333   0.317   0.342   0.334   0.329   0.327   0.319   0.321   0.316   0.343   0.349   0.367   0.359   0.351   0.361   0.365   0.374   0.398   0.405   0.414   0.432   0.425   0.423   0.425   0.397   0.389   0.392   0.356   0.358   0.350
    94.00    0.371   0.353   0.374   0.346   0.324   0.317   0.317   0.328   0.307   0.306   0.327   0.323   0.342   0.338   0.335   0.349   0.352   0.349   0.361   0.342   0.353   0.374   0.395   0.393   0.405   0.420   0.418   0.411   0.404   0.369   0.372   0.365   0.353   0.361   0.351
    89.35    0.374   0.374   0.349   0.337   0.328   0.316   0.321   0.317   0.311   0.300   0.310   0.321   0.324   0.318   0.337   0.351   0.334   0.327   0.343   0.346   0.357   0.363   0.365   0.377   0.379   0.412   0.417   0.412   0.409   0.379   0.389   0.368   0.348   0.353   0.371
    84.70    0.378   0.384   0.346   0.335   0.325   0.306   0.304   0.314   0.302   0.283   0.286   0.325   0.336   0.333   0.351   0.345   0.342   0.344   0.351   0.340   0.355   0.360   0.367   0.354   0.376   0.381   0.392   0.392   0.403   0.380   0.355   0.352   0.345   0.342   0.344
    80.05    0.363   0.356   0.346   0.323   0.323   0.309   0.297   0.301   0.308   0.281   0.294   0.298   0.322   0.344   0.345   0.345   0.345   0.344   0.351   0.334   0.343   0.343   0.351   0.346   0.342   0.360   0.378   0.370   0.369   0.376   0.353   0.358   0.341   0.353   0.338
    75.40    0.372   0.357   0.327   0.318   0.323   0.325   0.301   0.306   0.299   0.307   0.316   0.306   0.312   0.311   0.330   0.339   0.325   0.323   0.339   0.352   0.350   0.346   0.351   0.338   0.339   0.343   0.377   0.381   0.368   0.382   0.353   0.349   0.346   0.350   0.347
    70.75    0.353   0.350   0.333   0.318   0.322   0.310   0.292   0.290   0.297   0.328   0.328   0.319   0.299   0.321   0.323   0.322   0.324   0.316   0.338   0.365   0.366   0.359   0.359   0.350   0.354   0.365   0.378   0.364   0.359   0.364   0.334   0.343   0.343   0.360   0.343
    66.10    0.350   0.339   0.334   0.310   0.317   0.316   0.297   0.291   0.302   0.322   0.316   0.320   0.315   0.324   0.333   0.313   0.337   0.336   0.331   0.346   0.361   0.350   0.343   0.342   0.360   0.349   0.349   0.344   0.324   0.338   0.344   0.337   0.361   0.363   0.349
    61.45    0.358   0.336   0.317   0.315   0.317   0.333   0.327   0.308   0.313   0.331   0.313   0.311   0.311   0.328   0.336   0.321   0.325   0.336   0.332   0.320   0.352   0.353   0.348   0.336   0.335   0.336   0.336   0.326   0.340   0.346   0.343   0.339   0.353   0.360   0.358
    56.80    0.357   0.343   0.340   0.354   0.333   0.346   0.331   0.325   0.322   0.338   0.314   0.317   0.315   0.337   0.336   0.317   0.320   0.323   0.330   0.338   0.362   0.373   0.376   0.350   0.346   0.341   0.337   0.315   0.329   0.332   0.312   0.337   0.342   0.344   0.359
    52.15    0.340   0.340   0.358   0.352   0.344   0.345   0.345   0.317   0.310   0.323   0.308   0.307   0.305   0.321   0.322   0.313   0.322   0.328   0.343   0.350   0.369   0.366   0.349   0.351   0.347   0.346   0.343   0.325   0.325   0.323   0.324   0.312   0.330   0.340   0.343
    47.50    0.325   0.325   0.342   0.346   0.348   0.347   0.330   0.317   0.330   0.327   0.308   0.317   0.318   0.322   0.351   0.347   0.337   0.334   0.339   0.327   0.351   0.362   0.342   0.336   0.349   0.350   0.346   0.334   0.350   0.354   0.341   0.333   0.332   0.327   0.342
    42.85    0.334   0.319   0.333   0.337   0.337   0.340   0.352   0.337   0.320   0.320   0.315   0.318   0.353   0.344   0.360   0.345   0.331   0.339   0.330   0.333   0.343   0.363   0.348   0.341   0.346   0.327   0.320   0.325   0.343   0.347   0.343   0.363   0.337   0.325   0.326
    38.20    0.327   0.323   0.326   0.336   0.323   0.348   0.349   0.355   0.324   0.317   0.323   0.339   0.359   0.355   0.376   0.353   0.339   0.337   0.343   0.333   0.333   0.350   0.351   0.342   0.323   0.340   0.323   0.316   0.328   0.344   0.352   0.346   0.351   0.341   0.335
    33.55    0.329   0.329   0.324   0.333   0.329   0.341   0.334   0.338   0.336   0.332   0.334   0.346   0.342   0.337   0.338   0.358   0.353   0.352   0.322   0.339   0.336   0.338   0.327   0.323   0.322   0.336   0.332   0.352   0.338   0.357   0.337   0.337   0.343   0.332   0.345
    28.90    0.326   0.331   0.327   0.337   0.328   0.329   0.334   0.334   0.329   0.333   0.329   0.341   0.334   0.329   0.331   0.343   0.344   0.350   0.350   0.339   0.359   0.339   0.334   0.332   0.328   0.325   0.347   0.357   0.360   0.379   0.362   0.348   0.351   0.348   0.335
    24.25    0.317   0.327   0.326   0.335   0.325   0.329   0.346   0.345   0.341   0.325   0.321   0.320   0.330   0.336   0.336   0.340   0.317   0.332   0.347   0.348   0.338   0.348   0.331   0.341   0.342   0.333   0.348   0.358   0.363   0.377   0.356   0.351   0.357   0.373   0.347
    19.60    0.318   0.325   0.321   0.337   0.352   0.337   0.356   0.356   0.350   0.344   0.346   0.322   0.316   0.321   0.323   0.334   0.320   0.321   0.348   0.358   0.348   0.336   0.346   0.341   0.339   0.319   0.356   0.381   0.365   0.361   0.358   0.346   0.367   0.361   0.345
    14.95    0.328   0.336   0.328   0.333   0.353   0.362   0.360   0.383   0.376   0.359   0.328   0.324   0.332   0.326   0.328   0.339   0.339   0.326   0.348   0.363   0.353   0.349   0.352   0.341   0.328   0.314   0.337   0.357   0.370   0.365   0.385   0.379   0.378   0.380   0.365
    10.30    0.339   0.337   0.323   0.322   0.342   0.368   0.372   0.379   0.364   0.340   0.327   0.313   0.329   0.325   0.319   0.338   0.331   0.334   0.336   0.353   0.346   0.348   0.327   0.336   0.335   0.330   0.350   0.357   0.365   0.370   0.395   0.363   0.369   0.363   0.354
     5.65    0.335   0.347   0.333   0.330   0.344   0.378   0.370   0.374   0.357   0.351   0.316   0.313   0.318   0.328   0.346   0.337   0.347   0.343   0.353   0.335   0.354   0.340   0.336   0.328   0.330   0.333   0.339   0.342   0.370   0.360   0.380   0.383   0.363   0.334   0.342
     1.00    0.342   0.344   0.351   0.346   0.364   0.367   0.347   0.358   0.347   0.341   0.333   0.327   0.335   0.318   0.337   0.352   0.342   0.350   0.346   0.339   0.348   0.337   0.335   0.337   0.341   0.320   0.349   0.353   0.361   0.365   0.353   0.368   0.353   0.341   0.329

   Height   Standard deviation at grid points for the w component:
   168.40    0.241   0.235   0.231   0.227   0.220   0.227   0.222   0.228   0.232   0.232   0.232   0.238   0.245   0.249   0.257   0.260   0.246   0.249   0.247   0.244   0.234   0.245   0.246   0.254   0.250   0.238   0.247   0.251   0.255   0.245   0.242   0.239   0.236   0.235   0.235
   163.75    0.227   0.238   0.236   0.226   0.227   0.233   0.231   0.245   0.232   0.235   0.231   0.236   0.241   0.250   0.258   0.263   0.255   0.257   0.252   0.250   0.250   0.252   0.246   0.249   0.251   0.249   0.254   0.253   0.250   0.242   0.246   0.237   0.238   0.249   0.240
   159.10    0.225   0.227   0.233   0.231   0.227   0.237   0.242   0.249   0.243   0.239   0.232   0.229   0.238   0.243   0.255   0.263   0.260   0.260   0.259   0.257   0.253   0.247   0.254   0.258   0.252   0.259   0.260   0.249   0.254   0.246   0.246   0.253   0.243   0.242   0.242
   154.45    0.225   0.222   0.229   0.224   0.227   0.237   0.241   0.240   0.241   0.243   0.235   0.240   0.230   0.241   0.253   0.261   0.259   0.257   0.269   0.260   0.267   0.261   0.260   0.265   0.249   0.253   0.255   0.249   0.257   0.243   0.246   0.247   0.238   0.240   0.248
   149.80    0.221   0.221   0.224   0.220   0.231   0.236   0.244   0.243   0.243   0.235   0.232   0.236   0.236   0.231   0.246   0.251   0.252   0.262   0.260   0.263   0.262   0.268   0.262   0.257   0.256   0.255   0.254   0.250   0.241   0.247   0.244   0.252   0.243   0.246   0.235
   145.15    0.222   0.225   0.225   0.221   0.237   0.236   0.231   0.232   0.240   0.235   0.230   0.233   0.239   0.234   0.240   0.252   0.253   0.262   0.252   0.262   0.252   0.263   0.259   0.260   0.260   0.247   0.255   0.240   0.236   0.242   0.258   0.258   0.243   0.246   0.249
   140.50    0.227   0.223   0.230   0.243   0.242   0.240   0.235   0.238   0.238   0.234   0.230   0.230   0.237   0.232   0.234   0.240   0.254   0.251   0.257   0.255   0.260   0.259   0.254   0.257   0.261   0.252   0.238   0.246   0.245   0.236   0.241   0.244   0.247   0.244   0.248
   135.85    0.226   0.230   0.229   0.237   0.240   0.237   0.235   0.231   0.235   0.230   0.231   0.227   0.231   0.222   0.238   0.244   0.257   0.246   0.253   0.259   0.257   0.249   0.249   0.257   0.256   0.250   0.248   0.253   0.254   0.239   0.235   0.237   0.241   0.242   0.244
   131.20    0.228   0.235   0.238   0.236   0.239   0.240   0.233   0.229   0.231   0.240   0.240   0.242   0.236   0.234   0.234   0.242   0.252   0.242   0.244   0.246   0.242   0.240   0.239   0.249   0.252   0.252   0.252   0.265   0.274   0.253   0.241   0.239   0.249   0.247   0.250
   126.55    0.234   0.232   0.228   0.230   0.232   0.231   0.230   0.229   0.230   0.234   0.246   0.235   0.238   0.237   0.230   0.237   0.244   0.243   0.233   0.235   0.240   0.243   0.241   0.248   0.254   0.259   0.262   0.268   0.270   0.257   0.255   0.242   0.251   0.246   0.235
   121.90    0.234   0.228   0.224   0.224   0.228   0.225   0.223   0.230   0.239   0.244   0.234   0.232   0.233   0.231   0.234   0.237   0.237   0.231   0.231   0.243   0.240   0.240   0.243   0.250   0.262   0.265   0.264   0.263   0.270   0.256   0.249   0.249   0.252   0.242   0.238
   117.25    0.234   0.235   0.229   0.221   0.224   0.225   0.227   0.230   0.227   0.235   0.236   0.230   0.223   0.226   0.230   0.237   0.233   0.237   0.233   0.246   0.246   0.244   0.250   0.255   0.258   0.264   0.255   0.262   0.263   0.256   0.256   0.246   0.253   0.244   0.242
   112.60    0.239   0.237   0.233   0.229   0.226   0.232   0.232   0.237   0.238   0.239   0.227   0.226   0.227   0.226   0.224   0.230   0.230   0.231   0.237   0.238   0.237   0.244   0.244   0.249   0.252   0.252   0.244   0.258   0.247   0.252   0.255   0.247   0.243   0.244   0.249
   107.95    0.226   0.232   0.236   0.239   0.232   0.232   0.243   0.248   0.243   0.232   0.227   0.222   0.222   0.227   0.223   0.223   0.223   0.222   0.226   0.227   0.229   0.233   0.238   0.244   0.251   0.238   0.245   0.245   0.252   0.250   0.250   0.254   0.245   0.243   0.243
   103.30    0.227   0.235   0.242   0.242   0.241   0.235   0.239   0.246   0.241   0.229   0.230   0.223   0.216   0.226   0.221   0.223   0.228   0.229   0.226   0.232   0.233   0.232   0.237   0.240   0.243   0.244   0.244   0.239   0.240   0.242   0.251   0.253   0.247   0.235   0.241
    98.65    0.230   0.239   0.234   0.238   0.238   0.233   0.240   0.244   0.244   0.231   0.222   0.225   0.223   0.228   0.225   0.227   0.226   0.228   0.226   0.230   0.238   0.238   0.238   0.240   0.252   0.253   0.248   0.244   0.235   0.235   0.239   0.241   0.243   0.237   0.231
    94.00    0.234   0.241   0.240   0.236   0.231   0.225   0.237   0.246   0.235   0.232   0.234   0.221   0.227   0.230   0.227   0.223   0.224   0.236   0.230   0.223   0.233   0.241   0.239   0.237   0.247   0.249   0.245   0.238   0.236   0.236   0.239   0.231   0.229   0.229   0.221
    89.35    0.233   0.232   0.240   0.236   0.236   0.230   0.234   0.238   0.242   0.235   0.229   0.215   0.231   0.230   0.224   0.220   0.230   0.230   0.229   0.226   0.237   0.240   0.237   0.242   0.248   0.252   0.238   0.235   0.238   0.246   0.239   0.233   0.221   0.223   0.225
    84.70    0.230   0.223   0.232   0.235   0.235   0.237   0.235   0.234   0.231   0.227   0.223   0.223   0.228   0.227   0.230   0.226   0.228   0.229   0.232   0.240   0.241   0.240   0.239   0.252   0.253   0.242   0.231   0.236   0.237   0.242   0.226   0.221   0.216   0.222   0.233
    80.05    0.231   0.227   0.237   0.235   0.240   0.235   0.231   0.225   0.226   0.226   0.217   0.225   0.218   0.220   0.226   0.233   0.227   0.219   0.229   0.236   0.235   0.240   0.244   0.248   0.246   0.238   0.233   0.229   0.229   0.237   0.221   0.221   0.220   0.221   0.227
    75.40    0.231   0.234   0.237   0.233   0.238   0.234   0.231   0.219   0.213   0.218   0.219   0.229   0.224   0.224   0.234   0.238   0.229   0.231   0.230   0.235   0.235   0.240   0.241   0.239   0.233   0.237   0.235   0.230   0.233   0.235   0.231   0.228   0.229   0.229   0.227
    70.75    0.230   0.233   0.237   0.237   0.235   0.236   0.222   0.218   0.221   0.218   0.221   0.224   0.223   0.230   0.224   0.224   0.230   0.226   0.232   0.232   0.236   0.236   0.236   0.242   0.232   0.233   0.227   0.228   0.236   0.237   0.239   0.237   0.230   0.231   0.223
    66.10    0.229   0.235   0.233   0.239   0.240   0.232   0.225   0.222   0.225   0.224   0.217   0.211   0.221   0.225   0.224   0.228   0.235   0.235   0.226   0.235   0.230   0.242   0.236   0.235   0.234   0.233   0.221   0.228   0.229   0.232   0.236   0.229   0.232   0.225   0.226
    61.45    0.233   0.237   0.234   0.244   0.239   0.233   0.229   0.225   0.227   0.227   0.230   0.218   0.224   0.229   0.221   0.221   0.227   0.234   0.235   0.231   0.231   0.236   0.232   0.231   0.230   0.223   0.230   0.223   0.221   0.226   0.226   0.236   0.232   0.224   0.222
    56.80    0.235   0.235   0.232   0.236   0.231   0.230   0.233   0.234   0.229   0.229   0.235   0.225   0.223   0.221   0.217   0.227   0.232   0.237   0.234   0.226   0.235   0.234   0.225   0.225   0.232   0.228   0.225   0.222   0.221   0.226   0.219   0.217   0.226   0.225   0.222
    52.15    0.244   0.236   0.236   0.235   0.228   0.226   0.232   0.237   0.233   0.237   0.231   0.228   0.220   0.226   0.230   0.227   0.227   0.229   0.226   0.231   0.224   0.225   0.227   0.226   0.234   0.234   0.225   0.225   0.223   0.221   0.220   0.219   0.224   0.224   0.226
    47.50    0.241   0.244   0.228   0.231   0.231   0.224   0.230   0.232   0.232   0.238   0.239   0.220   0.229   0.231   0.233   0.228   0.225   0.234   0.227   0.229   0.229   0.220   0.223   0.222   0.227   0.228   0.218   0.219   0.228   0.231   0.228   0.231   0.223   0.232   0.230
    42.85    0.237   0.236   0.237   0.237   0.236   0.227   0.223   0.231   0.229   0.239   0.241   0.240   0.229   0.238   0.241   0.240   0.227   0.226   0.233   0.227   0.227   0.223   0.223   0.228   0.220   0.220   0.218   0.223   0.228   0.224   0.224   0.222   0.226   0.226   0.229
    38.20    0.239   0.233   0.230   0.232   0.230   0.237   0.230   0.235   0.226   0.237   0.236   0.236   0.234   0.244   0.247   0.239   0.231   0.228   0.238   0.222   0.231   0.233   0.237   0.225   0.227   0.225   0.228   0.230   0.229   0.228   0.221   0.229   0.232   0.235   0.241
    33.55    0.236   0.233   0.232   0.231   0.235   0.236   0.227   0.225   0.231   0.232   0.233   0.244   0.241   0.243   0.240   0.231   0.227   0.230   0.235   0.231   0.231   0.229   0.236   0.228   0.232   0.227   0.225   0.229   0.228   0.226   0.231   0.233   0.232   0.230   0.251
    28.90    0.250   0.242   0.239   0.236   0.230   0.230   0.223   0.228   0.230   0.235   0.231   0.233   0.232   0.241   0.233   0.217   0.218   0.222   0.232   0.235   0.231   0.227   0.231   0.234   0.236   0.234   0.228   0.231   0.223   0.224   0.230   0.237   0.243   0.242   0.247
    24.25    0.242   0.252   0.243   0.243   0.241   0.230   0.238   0.235   0.237   0.241   0.229   0.234   0.235   0.231   0.234   0.228   0.225   0.228   0.233   0.235   0.226   0.228   0.235   0.230   0.229   0.240   0.232   0.240   0.238   0.233   0.236   0.235   0.247   0.251   0.244
    19.60    0.243   0.250   0.246   0.242   0.241   0.236   0.242   0.231   0.235   0.240   0.236   0.239   0.235   0.238   0.235   0.230   0.229   0.230   0.229   0.229   0.236   0.224   0.233   0.221   0.228   0.230   0.225   0.233   0.237   0.242   0.248   0.248   0.247   0.242   0.242
    14.95    0.238   0.241   0.238   0.244   0.241   0.234   0.235   0.239   0.234   0.232   0.242   0.243   0.239   0.240   0.241   0.235   0.232   0.227   0.234   0.231   0.239   0.239   0.234   0.230   0.233   0.225   0.227   0.226   0.236   0.246   0.250   0.246   0.237   0.242   0.242
    10.30    0.229   0.238   0.241   0.237   0.240   0.242   0.240   0.235   0.234   0.240   0.242   0.247   0.238   0.233   0.236   0.243   0.242   0.229   0.230   0.224   0.235   0.234   0.233   0.236   0.229   0.230   0.232   0.233   0.237   0.241   0.240   0.243   0.236   0.242   0.239
     5.65    0.236   0.233   0.244   0.239   0.237   0.239   0.239   0.240   0.232   0.236   0.229   0.235   0.240   0.234   0.238   0.228   0.230   0.233   0.233   0.232   0.234   0.234   0.233   0.241   0.230   0.233   0.236   0.229   0.232   0.228   0.228   0.229   0.233   0.231   0.242
     1.00    0.236   0.244   0.249   0.246   0.237   0.240   0.242   0.239   0.229   0.226   0.232   0.240   0.239   0.232   0.237   0.235   0.230   0.234   0.238   0.240   0.234   0.231   0.232   0.237   0.238   0.233   0.234   0.227   0.230   0.230   0.227   0.231   0.232   0.235   0.237

   Mean standard deviation across all grid points:
      u component:    0.527 m/s
      v component:    0.348 m/s
      w component:    0.236 m/s


U-component (X) statistics from the interpolated hub point:

   Mean =   9.9913 m/s
   TI   =   5.0111 %


Processing complete.  5507.8 CPU seconds used.
