
This summary file was generated by TurbSim (from OpenFAST-v3.5.3) on 20-Apr-2025 at 03:45:19.


Runtime Options:

**********  Random seed #1
    RANLUX  Type of random number generator
         F  Output binary HH turbulence parameters?
         F  Output formatted turbulence parameters?
         F  Output AeroDyn HH files?
         T  Output AeroDyn FF files?
         F  Output BLADED FF files?
         F  Output tower data?
         F  Output HAWC FF files?
         F  Output formatted FF files?
         T  Output coherent turbulence time step file?
 0 -  NONE  IEC turbulence models scaled to exact specified standard deviation


Turbine/Model Specifications:

        37  Vertical grid-point matrix dimension
        35  Horizontal grid-point matrix dimension
     0.250  Time step [seconds]
   900.000  Analysis time [seconds]
   900.000  Usable output time [seconds]
    89.350  Hub height [m]
   167.400  Grid height [m]
   158.100  Grid width [m]
     0.000  Vertical flow angle [degrees]
     0.000  Horizontal flow angle [degrees]


Meteorological Boundary Conditions:

    TIMESR  User-input time series spectral model
       N/A  IEC standard
       N/A  IEC turbulence characteristic
       N/A  IEC turbulence type
       N/A  IEC Extreme Turbulence Model (ETM) "c" parameter [m/s]
       PL   Wind profile type
    90.000  Reference height [m]
    10.000  Reference wind speed [m/s]
       N/A  Jet height [m]
     0.120  Power law exponent
     0.030  Surface roughness length [m]


Non-IEC Meteorological Boundary Conditions:

    45.000  Site latitude [degrees]
     0.050  Gradient Richardson number
     0.480  Friction or shear velocity [m/s]
       N/A  Mixing layer depth [m]
       N/A  Mean hub u'w' Reynolds stress
       N/A  Mean hub u'v' Reynolds stress
       N/A  Mean hub v'w' Reynolds stress


Spatial Coherence Models:

       IEC  u-component coherence model
       IEC  v-component coherence model
       IEC  w-component coherence model
(   12.000, 0.353E-03)  u-component coherence parameters
(   12.000, 0.353E-03)  v-component coherence parameters
(   12.000, 0.353E-03)  w-component coherence parameters
       N/A  Coherence exponent


Coherent Turbulence Scaling Parameters:

.\EventData
            Name of the path containing the coherent turbulence data files
       les  Type of coherent turbulence data files
     1.000  Disturbance scale (ratio of wave height to rotor diameter)
     0.500  Fractional location of tower centerline from right
     0.500  Fractional location of hub height from the bottom of the dataset
    30.000  Minimum start time for coherent structures [seconds]


Profiles from User-Defined Time-Series Input:

  Height   Wind Speed   Horizontal Angle   Vertical Angle
   (m)        (m/s)          (deg)              (deg)    
  ------   ----------   ----------------   --------------
   94.00      10.00          -0.63                0.00


You have requested that the following file(s) be generated:

   /kfs3/scratch/agupta/Projects/RL_Incubator/FinalRuns_Veer/Seed4/./FFSim_Seed4/Cond00_v10.0_PL0.12_TI4.0/Case0_wdirp00/Seed_7/TurbSim/HighT14.bts (AeroDyn/TurbSim full-field wind file)


Turbulence Simulation Scaling Parameter Summary:

   Turbulence model used                            =  User-input time series
   Gradient Richardson number                       =    0.050
   Monin-Obukhov (M-O) z/L parameter                =    0.067
   Monin-Obukhov (M-O) length scale                 = 1340.250 m
   Mean wind speed at hub height                    =    9.991 m/s

   Wind profile type                                =  Power law
   Power law exponent                               =    0.120
   Mean shear across rotor disk                     =    0.019 (m/s)/m
   Assumed rotor diameter                           =  158.100 m
   Surface roughness length                         =    0.030 m

   Nyquist frequency of turbulent wind field        =    2.000 Hz

   Number of time steps in the FFT                  =     3600
   Number of time steps output                      =     3600
   Number of points simulated                       =     1296


Mean Flow Angles:

   Vertical   =   0.0 degrees
   Horizontal =   0.0 degrees

Mean Wind Speed Profile:

   Height    Wind Speed   Horizontal Angle  Vertical Angle  U-comp (X)   V-comp (Y)   W-comp (Z)
     (m)        (m/s)         (degrees)       (degrees)       (m/s)        (m/s)        (m/s)   
   ------    ----------   ----------------  --------------  ----------   ----------   ----------
    168.4       10.78            0.00            0.00         10.78         0.00         0.00
    163.7       10.74            0.00            0.00         10.74         0.00         0.00
    159.1       10.71            0.00            0.00         10.71         0.00         0.00
    154.4       10.67            0.00            0.00         10.67         0.00         0.00
    149.8       10.63            0.00            0.00         10.63         0.00         0.00
    145.1       10.59            0.00            0.00         10.59         0.00         0.00
    140.5       10.55            0.00            0.00         10.55         0.00         0.00
    135.8       10.51            0.00            0.00         10.51         0.00         0.00
    131.2       10.46            0.00            0.00         10.46         0.00         0.00
    126.5       10.42            0.00            0.00         10.42         0.00         0.00
    121.9       10.37            0.00            0.00         10.37         0.00         0.00
    117.2       10.32            0.00            0.00         10.32         0.00         0.00
    112.6       10.27            0.00            0.00         10.27         0.00         0.00
    107.9       10.22            0.00            0.00         10.22         0.00         0.00
    103.3       10.17            0.00            0.00         10.17         0.00         0.00
     98.6       10.11            0.00            0.00         10.11         0.00         0.00
     94.0       10.05            0.00            0.00         10.05         0.00         0.00
     89.3        9.99            0.00            0.00          9.99         0.00         0.00
     84.7        9.93            0.00            0.00          9.93         0.00         0.00
     80.0        9.86            0.00            0.00          9.86         0.00         0.00
     75.4        9.79            0.00            0.00          9.79         0.00         0.00
     70.7        9.72            0.00            0.00          9.72         0.00         0.00
     66.1        9.64            0.00            0.00          9.64         0.00         0.00
     61.4        9.55            0.00            0.00          9.55         0.00         0.00
     56.8        9.46            0.00            0.00          9.46         0.00         0.00
     52.1        9.37            0.00            0.00          9.37         0.00         0.00
     47.5        9.26            0.00            0.00          9.26         0.00         0.00
     42.8        9.15            0.00            0.00          9.15         0.00         0.00
     38.2        9.02            0.00            0.00          9.02         0.00         0.00
     33.5        8.88            0.00            0.00          8.88         0.00         0.00
     28.9        8.73            0.00            0.00          8.73         0.00         0.00
     24.2        8.54            0.00            0.00          8.54         0.00         0.00
     19.6        8.33            0.00            0.00          8.33         0.00         0.00
     14.9        8.06            0.00            0.00          8.06         0.00         0.00
     10.3        7.71            0.00            0.00          7.71         0.00         0.00
      5.6        7.17            0.00            0.00          7.17         0.00         0.00
      1.0        5.83            0.00            0.00          5.83         0.00         0.00


Harvested Random Seeds after Generation of the Random Numbers:

     65026800 K 1
            0 K 2


Hub-Height Simulated Turbulence Statistical Summary:

   Type of Wind        Min (m/s)   Mean (m/s)    Max (m/s)  Sigma (m/s)       TI (%)
   ----------------    ---------   ----------    ---------  -----------       ------
   Longitudinal (u)         8.75         9.99        11.31        0.464        4.644
   Lateral (v)             -0.85         0.00         0.96        0.292        2.925
   Vertical (w)            -0.67        -0.00         0.61        0.195        1.951
   U component              8.75         9.99        11.31        0.464        4.644
   V component             -0.85         0.00         0.96        0.292        2.925
   W component             -0.67        -0.00         0.61        0.195        1.951
   Horizontal (U&V)         8.75        10.00        11.31        0.464        4.640
   Total                    8.75        10.00        11.31        0.464        4.639

                       Min Reynolds     Mean Reynolds    Max Reynolds    Correlation
   Product             Stress (m/s)^2   Stress (m/s)^2   Stress (m/s)^2  Coefficient
   ----------------    --------------   --------------   --------------  -----------
   u'w'                     -0.476             0.001             0.508         0.006
   u'v'                     -0.670            -0.007             0.663        -0.053
   v'w'                     -0.408            -0.003             0.404        -0.044


   Friction Velocity (Ustar)  =      0.023 m/s
   Maximum Instantaneous TKE  =      0.865 (m/s)^2
   Maximum Instantaneous CTKE =      0.406 (m/s)^2


Grid Point Variance Summary:

   Y-coord  -79.05  -74.40  -69.75  -65.10  -60.45  -55.80  -51.15  -46.50  -41.85  -37.20  -32.55  -27.90  -23.25  -18.60  -13.95   -9.30   -4.65    0.00    4.65    9.30   13.95   18.60   23.25   27.90   32.55   37.20   41.85   46.50   51.15   55.80   60.45   65.10   69.75   74.40   79.05

   Height   Standard deviation at grid points for the u component:
   168.40    0.467   0.479   0.434   0.400   0.410   0.410   0.412   0.390   0.402   0.407   0.417   0.433   0.452   0.411   0.400   0.413   0.426   0.420   0.446   0.506   0.495   0.466   0.479   0.492   0.497   0.427   0.454   0.481   0.452   0.467   0.425   0.396   0.403   0.386   0.380
   163.75    0.447   0.469   0.429   0.419   0.414   0.422   0.415   0.424   0.394   0.386   0.398   0.412   0.410   0.443   0.419   0.445   0.428   0.462   0.494   0.508   0.498   0.503   0.512   0.482   0.444   0.476   0.460   0.463   0.465   0.467   0.456   0.428   0.414   0.382   0.352
   159.10    0.413   0.425   0.394   0.436   0.418   0.417   0.421   0.418   0.385   0.382   0.362   0.397   0.402   0.436   0.439   0.414   0.492   0.500   0.538   0.539   0.504   0.528   0.525   0.470   0.489   0.479   0.464   0.460   0.448   0.482   0.460   0.448   0.429   0.387   0.380
   154.45    0.406   0.408   0.401   0.417   0.438   0.455   0.416   0.416   0.375   0.389   0.394   0.389   0.423   0.412   0.429   0.424   0.467   0.509   0.509   0.519   0.507   0.512   0.519   0.495   0.477   0.483   0.458   0.473   0.475   0.492   0.465   0.440   0.413   0.388   0.343
   149.80    0.441   0.450   0.402   0.407   0.435   0.448   0.374   0.388   0.382   0.408   0.400   0.411   0.414   0.413   0.414   0.437   0.474   0.519   0.506   0.527   0.491   0.484   0.507   0.501   0.466   0.453   0.459   0.469   0.452   0.477   0.470   0.432   0.403   0.403   0.360
   145.15    0.468   0.437   0.426   0.441   0.402   0.418   0.391   0.361   0.386   0.407   0.402   0.413   0.411   0.392   0.408   0.427   0.414   0.446   0.523   0.521   0.491   0.507   0.511   0.468   0.472   0.455   0.465   0.460   0.454   0.450   0.457   0.440   0.418   0.416   0.397
   140.50    0.437   0.459   0.421   0.411   0.395   0.370   0.370   0.347   0.347   0.374   0.390   0.421   0.386   0.386   0.374   0.401   0.414   0.445   0.473   0.510   0.516   0.483   0.467   0.481   0.461   0.503   0.486   0.489   0.495   0.495   0.438   0.433   0.414   0.418   0.413
   135.85    0.445   0.440   0.414   0.385   0.383   0.381   0.359   0.368   0.346   0.360   0.391   0.393   0.394   0.381   0.377   0.366   0.403   0.430   0.426   0.488   0.486   0.473   0.459   0.445   0.478   0.483   0.509   0.533   0.520   0.465   0.470   0.450   0.404   0.456   0.432
   131.20    0.472   0.426   0.420   0.385   0.381   0.352   0.328   0.340   0.313   0.346   0.379   0.383   0.370   0.354   0.388   0.377   0.404   0.418   0.460   0.479   0.466   0.473   0.481   0.457   0.491   0.494   0.498   0.506   0.496   0.467   0.482   0.445   0.408   0.434   0.436
   126.55    0.458   0.450   0.417   0.379   0.374   0.350   0.319   0.337   0.341   0.338   0.366   0.373   0.356   0.340   0.341   0.378   0.403   0.459   0.451   0.493   0.506   0.505   0.493   0.485   0.500   0.531   0.498   0.480   0.519   0.517   0.477   0.479   0.422   0.447   0.409
   121.90    0.457   0.456   0.396   0.357   0.358   0.335   0.336   0.346   0.339   0.338   0.360   0.375   0.345   0.347   0.366   0.397   0.384   0.437   0.439   0.468   0.466   0.448   0.476   0.484   0.528   0.521   0.516   0.513   0.506   0.528   0.478   0.455   0.460   0.436   0.440
   117.25    0.443   0.438   0.396   0.412   0.359   0.378   0.347   0.353   0.354   0.361   0.362   0.362   0.348   0.347   0.382   0.368   0.377   0.393   0.416   0.431   0.406   0.455   0.455   0.476   0.498   0.488   0.496   0.468   0.504   0.475   0.486   0.475   0.472   0.427   0.455
   112.60    0.450   0.429   0.442   0.442   0.393   0.369   0.386   0.376   0.360   0.361   0.359   0.371   0.377   0.368   0.372   0.358   0.370   0.389   0.396   0.388   0.406   0.409   0.428   0.452   0.486   0.453   0.470   0.470   0.458   0.458   0.452   0.441   0.475   0.441   0.464
   107.95    0.455   0.449   0.437   0.422   0.410   0.375   0.375   0.391   0.380   0.383   0.386   0.364   0.382   0.377   0.366   0.368   0.379   0.396   0.404   0.399   0.397   0.423   0.432   0.424   0.446   0.457   0.468   0.442   0.443   0.461   0.438   0.444   0.469   0.461   0.424
   103.30    0.451   0.430   0.414   0.428   0.396   0.397   0.369   0.368   0.369   0.387   0.395   0.416   0.392   0.390   0.385   0.360   0.369   0.391   0.402   0.423   0.422   0.479   0.470   0.449   0.414   0.409   0.428   0.442   0.461   0.426   0.408   0.402   0.420   0.431   0.417
    98.65    0.472   0.463   0.397   0.383   0.374   0.371   0.363   0.376   0.373   0.370   0.364   0.387   0.378   0.361   0.380   0.373   0.429   0.401   0.422   0.429   0.454   0.453   0.451   0.440   0.404   0.381   0.398   0.412   0.409   0.433   0.413   0.395   0.418   0.431   0.423
    94.00    0.465   0.465   0.411   0.382   0.380   0.361   0.360   0.384   0.380   0.393   0.372   0.384   0.391   0.405   0.393   0.417   0.443   0.448   0.416   0.455   0.464   0.445   0.435   0.414   0.407   0.369   0.393   0.386   0.395   0.409   0.437   0.393   0.422   0.425   0.404
    89.35    0.439   0.458   0.412   0.416   0.364   0.375   0.364   0.396   0.404   0.386   0.407   0.403   0.384   0.399   0.411   0.419   0.444   0.464   0.454   0.472   0.469   0.463   0.444   0.434   0.397   0.399   0.361   0.398   0.418   0.419   0.426   0.427   0.466   0.434   0.443
    84.70    0.461   0.467   0.459   0.432   0.385   0.401   0.424   0.403   0.401   0.416   0.432   0.401   0.400   0.392   0.401   0.408   0.442   0.430   0.434   0.418   0.443   0.457   0.474   0.433   0.417   0.380   0.391   0.393   0.418   0.415   0.415   0.435   0.469   0.463   0.468
    80.05    0.444   0.443   0.444   0.430   0.410   0.417   0.439   0.414   0.383   0.407   0.405   0.398   0.416   0.412   0.426   0.407   0.418   0.423   0.403   0.424   0.437   0.442   0.455   0.421   0.411   0.431   0.423   0.431   0.441   0.418   0.439   0.417   0.445   0.453   0.462
    75.40    0.472   0.444   0.436   0.438   0.398   0.423   0.417   0.396   0.355   0.388   0.406   0.395   0.421   0.391   0.393   0.406   0.432   0.418   0.413   0.421   0.425   0.445   0.453   0.417   0.416   0.438   0.433   0.456   0.473   0.432   0.443   0.456   0.456   0.462   0.467
    70.75    0.481   0.485   0.433   0.395   0.395   0.408   0.410   0.375   0.397   0.405   0.403   0.398   0.414   0.408   0.415   0.389   0.428   0.428   0.453   0.428   0.423   0.440   0.432   0.412   0.446   0.479   0.453   0.430   0.483   0.477   0.435   0.425   0.468   0.452   0.477
    66.10    0.479   0.470   0.444   0.407   0.391   0.390   0.381   0.398   0.408   0.407   0.425   0.418   0.398   0.385   0.402   0.425   0.435   0.450   0.446   0.405   0.409   0.417   0.415   0.455   0.447   0.472   0.488   0.461   0.467   0.499   0.469   0.458   0.467   0.501   0.468
    61.45    0.455   0.444   0.420   0.407   0.411   0.371   0.409   0.441   0.421   0.397   0.420   0.441   0.423   0.425   0.420   0.439   0.440   0.426   0.431   0.450   0.421   0.390   0.395   0.425   0.425   0.444   0.439   0.467   0.436   0.464   0.522   0.488   0.508   0.522   0.479
    56.80    0.442   0.428   0.407   0.398   0.375   0.387   0.398   0.413   0.427   0.398   0.438   0.423   0.440   0.431   0.429   0.424   0.421   0.424   0.444   0.442   0.411   0.402   0.383   0.440   0.435   0.463   0.469   0.455   0.427   0.461   0.483   0.531   0.529   0.512   0.500
    52.15    0.404   0.398   0.403   0.391   0.384   0.372   0.395   0.414   0.399   0.404   0.405   0.403   0.418   0.433   0.417   0.413   0.407   0.404   0.407   0.402   0.401   0.388   0.422   0.438   0.446   0.493   0.498   0.496   0.466   0.495   0.524   0.523   0.541   0.511   0.535
    47.50    0.403   0.369   0.378   0.385   0.402   0.366   0.377   0.398   0.400   0.375   0.391   0.375   0.402   0.420   0.427   0.393   0.371   0.391   0.414   0.427   0.407   0.395   0.410   0.460   0.489   0.461   0.482   0.473   0.502   0.515   0.533   0.531   0.523   0.534   0.574
    42.85    0.406   0.379   0.394   0.401   0.371   0.380   0.371   0.379   0.382   0.402   0.402   0.396   0.401   0.406   0.391   0.378   0.363   0.356   0.388   0.410   0.393   0.397   0.409   0.424   0.459   0.449   0.439   0.451   0.474   0.461   0.498   0.491   0.507   0.575   0.561
    38.20    0.399   0.386   0.413   0.391   0.386   0.395   0.367   0.376   0.367   0.369   0.367   0.371   0.393   0.391   0.392   0.375   0.382   0.359   0.366   0.381   0.399   0.404   0.431   0.431   0.450   0.419   0.435   0.447   0.442   0.479   0.460   0.470   0.462   0.534   0.549
    33.55    0.405   0.401   0.415   0.380   0.394   0.411   0.418   0.384   0.350   0.343   0.352   0.367   0.378   0.373   0.383   0.378   0.358   0.372   0.390   0.382   0.410   0.400   0.422   0.418   0.424   0.433   0.456   0.448   0.426   0.447   0.430   0.441   0.449   0.510   0.541
    28.90    0.396   0.416   0.438   0.384   0.411   0.413   0.397   0.382   0.357   0.358   0.364   0.356   0.354   0.363   0.368   0.379   0.386   0.398   0.399   0.372   0.379   0.394   0.369   0.414   0.414   0.435   0.428   0.427   0.413   0.420   0.431   0.419   0.439   0.493   0.532
    24.25    0.414   0.434   0.422   0.412   0.410   0.395   0.366   0.356   0.357   0.351   0.368   0.350   0.335   0.349   0.345   0.381   0.395   0.399   0.378   0.371   0.383   0.369   0.373   0.405   0.414   0.405   0.407   0.425   0.385   0.416   0.425   0.445   0.444   0.479   0.520
    19.60    0.444   0.432   0.432   0.424   0.419   0.407   0.393   0.343   0.334   0.345   0.369   0.333   0.332   0.338   0.342   0.354   0.390   0.391   0.374   0.379   0.365   0.366   0.378   0.415   0.398   0.410   0.398   0.377   0.411   0.427   0.418   0.435   0.463   0.479   0.508
    14.95    0.431   0.431   0.445   0.458   0.458   0.395   0.366   0.343   0.349   0.344   0.351   0.320   0.327   0.322   0.353   0.350   0.387   0.383   0.376   0.372   0.336   0.347   0.364   0.386   0.404   0.417   0.409   0.401   0.402   0.418   0.438   0.431   0.471   0.487   0.488
    10.30    0.413   0.410   0.439   0.422   0.470   0.438   0.405   0.361   0.361   0.368   0.339   0.342   0.342   0.330   0.343   0.352   0.369   0.363   0.373   0.367   0.325   0.341   0.376   0.408   0.403   0.405   0.399   0.391   0.412   0.426   0.454   0.453   0.442   0.513   0.498
     5.65    0.403   0.374   0.402   0.435   0.451   0.464   0.419   0.389   0.369   0.373   0.350   0.352   0.328   0.348   0.332   0.358   0.378   0.390   0.358   0.358   0.359   0.381   0.392   0.413   0.406   0.385   0.404   0.399   0.396   0.421   0.445   0.438   0.480   0.508   0.512
     1.00    0.374   0.373   0.398   0.396   0.432   0.470   0.414   0.365   0.365   0.361   0.376   0.365   0.372   0.348   0.346   0.364   0.381   0.401   0.363   0.379   0.378   0.376   0.361   0.414   0.414   0.408   0.433   0.410   0.427   0.433   0.445   0.432   0.486   0.478   0.477

   Height   Standard deviation at grid points for the v component:
   168.40    0.311   0.319   0.322   0.337   0.328   0.314   0.313   0.326   0.320   0.326   0.338   0.337   0.333   0.315   0.311   0.306   0.304   0.320   0.316   0.290   0.285   0.280   0.285   0.288   0.294   0.291   0.306   0.304   0.315   0.343   0.331   0.327   0.339   0.341   0.321
   163.75    0.312   0.306   0.320   0.328   0.315   0.323   0.314   0.322   0.325   0.328   0.350   0.334   0.320   0.315   0.311   0.318   0.302   0.303   0.308   0.309   0.299   0.291   0.286   0.289   0.299   0.302   0.293   0.308   0.319   0.334   0.337   0.341   0.342   0.331   0.337
   159.10    0.316   0.315   0.302   0.306   0.301   0.301   0.310   0.323   0.339   0.334   0.340   0.337   0.334   0.315   0.314   0.315   0.310   0.301   0.320   0.308   0.316   0.308   0.311   0.301   0.297   0.314   0.307   0.299   0.309   0.324   0.329   0.343   0.346   0.345   0.353
   154.45    0.314   0.312   0.314   0.325   0.295   0.307   0.304   0.322   0.334   0.355   0.337   0.329   0.332   0.321   0.304   0.300   0.311   0.310   0.323   0.315   0.317   0.317   0.307   0.298   0.306   0.306   0.314   0.301   0.316   0.324   0.327   0.337   0.348   0.329   0.353
   149.80    0.304   0.317   0.312   0.309   0.301   0.312   0.322   0.327   0.336   0.356   0.346   0.330   0.326   0.319   0.309   0.308   0.314   0.323   0.320   0.310   0.327   0.314   0.304   0.313   0.303   0.313   0.299   0.290   0.318   0.326   0.325   0.327   0.340   0.353   0.356
   145.15    0.300   0.310   0.300   0.306   0.291   0.301   0.305   0.314   0.334   0.348   0.332   0.328   0.321   0.334   0.328   0.308   0.321   0.317   0.315   0.305   0.309   0.306   0.318   0.320   0.309   0.304   0.297   0.305   0.310   0.317   0.320   0.323   0.339   0.359   0.349
   140.50    0.313   0.314   0.314   0.311   0.293   0.310   0.301   0.329   0.325   0.326   0.314   0.319   0.324   0.329   0.331   0.322   0.323   0.321   0.306   0.296   0.314   0.313   0.313   0.320   0.319   0.322   0.316   0.310   0.317   0.314   0.320   0.324   0.337   0.338   0.346
   135.85    0.317   0.317   0.308   0.292   0.299   0.303   0.311   0.314   0.303   0.312   0.314   0.322   0.321   0.322   0.332   0.331   0.321   0.315   0.304   0.312   0.314   0.325   0.338   0.321   0.308   0.311   0.327   0.339   0.323   0.326   0.320   0.308   0.321   0.338   0.340
   131.20    0.304   0.305   0.277   0.288   0.306   0.297   0.303   0.305   0.286   0.320   0.322   0.319   0.339   0.341   0.341   0.351   0.335   0.314   0.296   0.315   0.328   0.322   0.327   0.310   0.308   0.317   0.315   0.326   0.325   0.322   0.328   0.324   0.326   0.338   0.338
   126.55    0.308   0.314   0.289   0.277   0.296   0.301   0.289   0.303   0.296   0.307   0.319   0.333   0.342   0.337   0.326   0.324   0.328   0.331   0.314   0.313   0.325   0.330   0.314   0.306   0.319   0.312   0.318   0.320   0.316   0.334   0.352   0.348   0.349   0.347   0.345
   121.90    0.295   0.292   0.297   0.285   0.293   0.293   0.293   0.294   0.296   0.322   0.325   0.332   0.324   0.321   0.315   0.320   0.328   0.327   0.313   0.310   0.327   0.316   0.311   0.306   0.304   0.321   0.320   0.316   0.321   0.329   0.342   0.340   0.341   0.337   0.346
   117.25    0.281   0.285   0.291   0.284   0.285   0.295   0.293   0.300   0.304   0.312   0.324   0.328   0.318   0.325   0.326   0.304   0.327   0.329   0.309   0.306   0.314   0.309   0.309   0.305   0.306   0.317   0.315   0.306   0.321   0.343   0.351   0.337   0.340   0.327   0.328
   112.60    0.294   0.279   0.272   0.274   0.279   0.294   0.309   0.305   0.312   0.328   0.331   0.336   0.317   0.314   0.325   0.317   0.305   0.308   0.301   0.298   0.304   0.317   0.320   0.312   0.327   0.315   0.315   0.311   0.325   0.337   0.336   0.321   0.325   0.325   0.318
   107.95    0.284   0.283   0.280   0.266   0.274   0.292   0.294   0.290   0.299   0.330   0.341   0.328   0.342   0.337   0.337   0.316   0.304   0.297   0.295   0.288   0.293   0.307   0.304   0.308   0.323   0.308   0.321   0.313   0.308   0.321   0.315   0.332   0.312   0.321   0.318
   103.30    0.283   0.277   0.278   0.275   0.279   0.293   0.299   0.289   0.305   0.322   0.334   0.323   0.333   0.335   0.321   0.299   0.281   0.299   0.285   0.297   0.303   0.302   0.288   0.301   0.316   0.321   0.313   0.311   0.318   0.323   0.323   0.324   0.320   0.340   0.322
    98.65    0.266   0.283   0.283   0.280   0.281   0.293   0.291   0.302   0.313   0.327   0.328   0.342   0.331   0.319   0.320   0.303   0.270   0.280   0.293   0.304   0.296   0.292   0.307   0.298   0.294   0.307   0.304   0.302   0.319   0.319   0.336   0.338   0.342   0.356   0.337
    94.00    0.266   0.272   0.284   0.281   0.285   0.289   0.279   0.290   0.311   0.345   0.352   0.334   0.330   0.324   0.304   0.293   0.298   0.298   0.299   0.295   0.298   0.296   0.304   0.299   0.304   0.294   0.294   0.301   0.323   0.343   0.351   0.337   0.337   0.351   0.339
    89.35    0.271   0.271   0.272   0.276   0.265   0.265   0.289   0.301   0.316   0.327   0.331   0.329   0.321   0.323   0.304   0.312   0.290   0.292   0.295   0.294   0.296   0.283   0.298   0.302   0.313   0.307   0.305   0.307   0.324   0.339   0.348   0.338   0.349   0.347   0.336
    84.70    0.257   0.258   0.263   0.271   0.267   0.283   0.293   0.290   0.305   0.303   0.309   0.327   0.327   0.343   0.313   0.301   0.269   0.291   0.291   0.296   0.294   0.304   0.301   0.305   0.304   0.303   0.300   0.300   0.316   0.336   0.341   0.332   0.334   0.347   0.339
    80.05    0.248   0.244   0.267   0.263   0.264   0.266   0.273   0.268   0.288   0.295   0.288   0.322   0.330   0.324   0.304   0.291   0.284   0.296   0.304   0.295   0.284   0.288   0.301   0.296   0.304   0.313   0.295   0.308   0.321   0.323   0.341   0.332   0.331   0.321   0.320
    75.40    0.243   0.251   0.257   0.268   0.261   0.260   0.256   0.264   0.277   0.287   0.310   0.329   0.326   0.304   0.294   0.290   0.296   0.295   0.300   0.292   0.280   0.287   0.295   0.308   0.288   0.289   0.305   0.312   0.302   0.322   0.320   0.336   0.340   0.337   0.311
    70.75    0.259   0.250   0.260   0.271   0.276   0.278   0.268   0.274   0.281   0.310   0.316   0.331   0.317   0.309   0.325   0.312   0.308   0.281   0.293   0.287   0.294   0.296   0.289   0.296   0.292   0.287   0.296   0.315   0.308   0.320   0.331   0.332   0.346   0.318   0.320
    66.10    0.272   0.265   0.254   0.268   0.279   0.282   0.268   0.279   0.287   0.302   0.321   0.331   0.308   0.308   0.311   0.308   0.297   0.273   0.282   0.291   0.302   0.301   0.304   0.295   0.293   0.305   0.304   0.306   0.318   0.320   0.325   0.344   0.329   0.330   0.310
    61.45    0.271   0.269   0.259   0.263   0.270   0.268   0.269   0.286   0.299   0.290   0.317   0.326   0.304   0.303   0.308   0.296   0.285   0.279   0.291   0.284   0.286   0.307   0.304   0.300   0.294   0.302   0.293   0.282   0.302   0.298   0.326   0.326   0.322   0.313   0.305
    56.80    0.274   0.288   0.278   0.260   0.272   0.268   0.267   0.291   0.295   0.303   0.300   0.308   0.300   0.298   0.313   0.307   0.299   0.294   0.297   0.297   0.294   0.296   0.287   0.300   0.294   0.282   0.303   0.284   0.297   0.296   0.329   0.334   0.310   0.314   0.305
    52.15    0.277   0.273   0.265   0.267   0.258   0.264   0.269   0.290   0.304   0.297   0.288   0.300   0.275   0.290   0.303   0.312   0.302   0.285   0.290   0.293   0.284   0.286   0.297   0.312   0.293   0.298   0.290   0.298   0.305   0.314   0.326   0.320   0.332   0.308   0.295
    47.50    0.275   0.271   0.278   0.272   0.265   0.269   0.289   0.302   0.287   0.289   0.297   0.282   0.272   0.287   0.302   0.319   0.298   0.285   0.277   0.291   0.295   0.301   0.298   0.308   0.311   0.310   0.311   0.303   0.303   0.297   0.317   0.328   0.332   0.316   0.309
    42.85    0.287   0.275   0.275   0.281   0.269   0.266   0.280   0.274   0.280   0.289   0.301   0.281   0.285   0.282   0.293   0.304   0.297   0.290   0.284   0.289   0.290   0.304   0.296   0.299   0.319   0.324   0.308   0.311   0.311   0.318   0.324   0.324   0.304   0.310   0.317
    38.20    0.293   0.290   0.274   0.271   0.276   0.278   0.276   0.282   0.273   0.280   0.283   0.266   0.280   0.280   0.281   0.295   0.292   0.282   0.287   0.288   0.290   0.298   0.290   0.300   0.312   0.306   0.316   0.317   0.317   0.306   0.322   0.312   0.313   0.311   0.297
    33.55    0.297   0.287   0.270   0.281   0.283   0.280   0.290   0.288   0.277   0.267   0.270   0.265   0.276   0.280   0.293   0.289   0.297   0.294   0.293   0.298   0.296   0.288   0.281   0.291   0.291   0.298   0.311   0.318   0.317   0.294   0.316   0.313   0.316   0.310   0.309
    28.90    0.296   0.288   0.282   0.275   0.275   0.274   0.276   0.279   0.266   0.272   0.266   0.277   0.268   0.288   0.294   0.289   0.271   0.293   0.285   0.287   0.284   0.274   0.295   0.289   0.296   0.308   0.310   0.303   0.305   0.307   0.312   0.310   0.314   0.321   0.317
    24.25    0.307   0.290   0.294   0.294   0.276   0.269   0.265   0.278   0.270   0.282   0.279   0.277   0.290   0.297   0.298   0.286   0.272   0.280   0.268   0.283   0.285   0.281   0.298   0.292   0.283   0.302   0.309   0.301   0.302   0.303   0.303   0.310   0.306   0.313   0.316
    19.60    0.324   0.295   0.292   0.302   0.285   0.283   0.290   0.273   0.276   0.285   0.276   0.287   0.297   0.287   0.291   0.280   0.290   0.285   0.259   0.268   0.272   0.272   0.287   0.297   0.292   0.303   0.309   0.305   0.307   0.295   0.309   0.308   0.303   0.310   0.302
    14.95    0.315   0.296   0.283   0.295   0.278   0.273   0.274   0.273   0.277   0.282   0.275   0.284   0.289   0.305   0.302   0.306   0.296   0.280   0.287   0.272   0.285   0.272   0.291   0.307   0.304   0.312   0.305   0.299   0.307   0.299   0.309   0.305   0.308   0.314   0.309
    10.30    0.310   0.300   0.273   0.284   0.276   0.270   0.279   0.281   0.279   0.274   0.275   0.274   0.288   0.316   0.315   0.302   0.307   0.306   0.289   0.284   0.278   0.279   0.299   0.301   0.322   0.320   0.311   0.292   0.283   0.290   0.300   0.318   0.323   0.329   0.331
     5.65    0.319   0.301   0.276   0.279   0.270   0.276   0.292   0.282   0.277   0.274   0.277   0.304   0.311   0.327   0.332   0.314   0.313   0.308   0.310   0.293   0.291   0.285   0.291   0.307   0.308   0.315   0.306   0.298   0.297   0.311   0.310   0.316   0.324   0.325   0.335
     1.00    0.316   0.317   0.280   0.280   0.275   0.295   0.280   0.289   0.284   0.301   0.297   0.299   0.307   0.318   0.317   0.315   0.325   0.300   0.303   0.297   0.300   0.285   0.295   0.295   0.298   0.307   0.315   0.310   0.312   0.317   0.335   0.336   0.328   0.312   0.329

   Height   Standard deviation at grid points for the w component:
   168.40    0.210   0.213   0.218   0.211   0.204   0.197   0.195   0.197   0.196   0.190   0.205   0.200   0.208   0.211   0.210   0.208   0.202   0.203   0.195   0.196   0.199   0.197   0.189   0.202   0.193   0.188   0.174   0.181   0.189   0.189   0.194   0.191   0.195   0.194   0.188
   163.75    0.209   0.213   0.215   0.205   0.204   0.196   0.193   0.196   0.196   0.194   0.202   0.195   0.211   0.218   0.212   0.205   0.206   0.200   0.191   0.198   0.201   0.200   0.193   0.202   0.198   0.185   0.176   0.187   0.188   0.188   0.187   0.187   0.194   0.198   0.192
   159.10    0.210   0.210   0.215   0.209   0.199   0.197   0.196   0.194   0.199   0.200   0.195   0.198   0.215   0.206   0.210   0.202   0.195   0.191   0.191   0.193   0.199   0.186   0.191   0.195   0.195   0.183   0.187   0.188   0.190   0.196   0.183   0.186   0.196   0.192   0.189
   154.45    0.202   0.204   0.200   0.203   0.190   0.195   0.197   0.198   0.198   0.201   0.200   0.198   0.206   0.205   0.209   0.198   0.193   0.189   0.191   0.187   0.186   0.191   0.187   0.193   0.192   0.182   0.185   0.187   0.186   0.189   0.190   0.182   0.194   0.189   0.192
   149.80    0.197   0.202   0.201   0.199   0.190   0.188   0.191   0.194   0.197   0.195   0.197   0.193   0.201   0.195   0.194   0.189   0.187   0.182   0.186   0.191   0.187   0.185   0.182   0.187   0.180   0.184   0.183   0.187   0.184   0.191   0.187   0.189   0.192   0.185   0.194
   145.15    0.198   0.199   0.197   0.195   0.197   0.197   0.196   0.202   0.194   0.196   0.204   0.196   0.203   0.205   0.196   0.194   0.194   0.188   0.184   0.185   0.180   0.174   0.175   0.177   0.181   0.179   0.181   0.179   0.183   0.182   0.186   0.182   0.192   0.195   0.189
   140.50    0.195   0.199   0.191   0.186   0.192   0.192   0.185   0.191   0.198   0.200   0.201   0.197   0.200   0.205   0.201   0.192   0.188   0.185   0.188   0.181   0.186   0.176   0.174   0.176   0.179   0.184   0.185   0.178   0.187   0.183   0.186   0.184   0.182   0.183   0.194
   135.85    0.187   0.195   0.195   0.190   0.187   0.193   0.194   0.191   0.200   0.199   0.205   0.204   0.202   0.199   0.194   0.195   0.192   0.191   0.184   0.179   0.185   0.181   0.171   0.181   0.186   0.185   0.184   0.176   0.186   0.181   0.185   0.188   0.189   0.187   0.191
   131.20    0.189   0.189   0.188   0.187   0.188   0.187   0.185   0.192   0.192   0.209   0.203   0.210   0.208   0.202   0.194   0.198   0.193   0.192   0.191   0.192   0.179   0.183   0.180   0.184   0.185   0.186   0.185   0.186   0.189   0.181   0.188   0.187   0.180   0.190   0.188
   126.55    0.193   0.197   0.192   0.183   0.182   0.185   0.184   0.187   0.201   0.210   0.209   0.209   0.197   0.202   0.202   0.190   0.189   0.193   0.189   0.183   0.183   0.182   0.182   0.188   0.183   0.193   0.184   0.192   0.194   0.194   0.186   0.186   0.188   0.189   0.187
   121.90    0.201   0.198   0.198   0.193   0.192   0.187   0.189   0.191   0.204   0.208   0.205   0.200   0.195   0.188   0.191   0.190   0.192   0.187   0.180   0.185   0.181   0.177   0.187   0.184   0.185   0.193   0.195   0.190   0.192   0.200   0.199   0.193   0.196   0.188   0.188
   117.25    0.210   0.201   0.203   0.202   0.197   0.188   0.191   0.190   0.203   0.197   0.199   0.192   0.194   0.194   0.194   0.189   0.185   0.181   0.183   0.187   0.190   0.186   0.188   0.191   0.192   0.195   0.197   0.182   0.188   0.196   0.196   0.204   0.198   0.191   0.195
   112.60    0.203   0.203   0.203   0.198   0.200   0.198   0.192   0.186   0.191   0.197   0.191   0.195   0.195   0.200   0.196   0.192   0.190   0.184   0.188   0.184   0.193   0.190   0.194   0.196   0.196   0.200   0.196   0.189   0.187   0.190   0.189   0.195   0.201   0.188   0.190
   107.95    0.205   0.205   0.200   0.198   0.196   0.198   0.191   0.185   0.192   0.185   0.195   0.196   0.191   0.187   0.192   0.194   0.189   0.188   0.189   0.196   0.190   0.187   0.195   0.188   0.196   0.197   0.198   0.192   0.192   0.191   0.182   0.181   0.182   0.185   0.187
   103.30    0.204   0.208   0.199   0.196   0.190   0.190   0.190   0.192   0.191   0.185   0.191   0.193   0.194   0.189   0.199   0.197   0.191   0.186   0.176   0.191   0.191   0.189   0.191   0.193   0.192   0.196   0.192   0.200   0.192   0.189   0.183   0.177   0.182   0.183   0.189
    98.65    0.197   0.191   0.186   0.191   0.189   0.193   0.186   0.191   0.188   0.190   0.186   0.195   0.191   0.190   0.194   0.202   0.198   0.192   0.188   0.188   0.197   0.196   0.185   0.186   0.189   0.193   0.198   0.192   0.190   0.187   0.181   0.181   0.188   0.176   0.184
    94.00    0.185   0.189   0.190   0.190   0.195   0.185   0.179   0.183   0.177   0.187   0.186   0.186   0.189   0.193   0.189   0.196   0.196   0.196   0.187   0.191   0.203   0.198   0.190   0.193   0.190   0.193   0.199   0.194   0.182   0.182   0.172   0.181   0.184   0.184   0.191
    89.35    0.194   0.189   0.190   0.192   0.183   0.181   0.189   0.178   0.187   0.184   0.186   0.185   0.188   0.194   0.192   0.195   0.189   0.195   0.200   0.208   0.198   0.191   0.197   0.199   0.197   0.194   0.191   0.188   0.183   0.182   0.175   0.181   0.189   0.186   0.183
    84.70    0.189   0.191   0.194   0.190   0.186   0.187   0.190   0.186   0.192   0.192   0.184   0.179   0.186   0.190   0.185   0.193   0.198   0.197   0.192   0.197   0.198   0.193   0.193   0.195   0.193   0.198   0.196   0.184   0.177   0.175   0.185   0.186   0.187   0.177   0.182
    80.05    0.198   0.198   0.190   0.194   0.182   0.187   0.192   0.191   0.185   0.190   0.187   0.177   0.182   0.182   0.186   0.188   0.192   0.201   0.196   0.192   0.194   0.193   0.189   0.190   0.191   0.192   0.189   0.182   0.178   0.174   0.183   0.190   0.183   0.179   0.179
    75.40    0.196   0.191   0.192   0.188   0.184   0.184   0.191   0.192   0.194   0.193   0.192   0.190   0.185   0.183   0.184   0.184   0.193   0.191   0.192   0.185   0.186   0.190   0.193   0.198   0.190   0.189   0.189   0.191   0.174   0.182   0.184   0.183   0.182   0.177   0.181
    70.75    0.196   0.192   0.195   0.181   0.184   0.188   0.189   0.198   0.197   0.191   0.195   0.185   0.187   0.181   0.189   0.189   0.197   0.191   0.194   0.192   0.188   0.190   0.189   0.185   0.186   0.185   0.194   0.187   0.177   0.177   0.186   0.181   0.171   0.170   0.179
    66.10    0.199   0.202   0.192   0.188   0.188   0.197   0.199   0.197   0.200   0.200   0.195   0.192   0.181   0.185   0.193   0.194   0.199   0.200   0.192   0.192   0.195   0.194   0.183   0.192   0.189   0.194   0.187   0.179   0.179   0.179   0.180   0.175   0.167   0.178   0.182
    61.45    0.198   0.207   0.193   0.193   0.189   0.195   0.197   0.201   0.198   0.201   0.191   0.192   0.186   0.185   0.194   0.196   0.191   0.191   0.200   0.197   0.190   0.197   0.195   0.197   0.197   0.203   0.188   0.180   0.180   0.178   0.180   0.175   0.178   0.184   0.186
    56.80    0.203   0.197   0.201   0.193   0.197   0.194   0.198   0.199   0.191   0.198   0.194   0.185   0.190   0.186   0.188   0.189   0.193   0.199   0.203   0.193   0.199   0.192   0.197   0.192   0.200   0.196   0.196   0.183   0.184   0.186   0.190   0.186   0.194   0.189   0.182
    52.15    0.202   0.199   0.196   0.204   0.198   0.191   0.195   0.195   0.203   0.205   0.192   0.191   0.186   0.200   0.200   0.195   0.196   0.200   0.193   0.197   0.193   0.196   0.199   0.202   0.202   0.202   0.200   0.198   0.193   0.194   0.188   0.191   0.188   0.188   0.189
    47.50    0.195   0.201   0.196   0.200   0.192   0.193   0.188   0.190   0.196   0.193   0.191   0.195   0.187   0.191   0.198   0.191   0.194   0.195   0.196   0.200   0.200   0.200   0.205   0.203   0.203   0.199   0.202   0.192   0.183   0.183   0.186   0.186   0.187   0.187   0.193
    42.85    0.195   0.194   0.199   0.202   0.188   0.190   0.189   0.191   0.197   0.196   0.182   0.189   0.191   0.183   0.188   0.190   0.184   0.193   0.196   0.201   0.196   0.197   0.208   0.199   0.204   0.200   0.193   0.191   0.179   0.186   0.184   0.195   0.190   0.197   0.192
    38.20    0.192   0.196   0.201   0.197   0.194   0.191   0.192   0.188   0.191   0.191   0.192   0.191   0.189   0.189   0.183   0.186   0.190   0.195   0.189   0.190   0.196   0.195   0.199   0.203   0.206   0.196   0.187   0.183   0.193   0.190   0.191   0.195   0.191   0.191   0.199
    33.55    0.190   0.195   0.195   0.198   0.188   0.181   0.185   0.183   0.190   0.195   0.182   0.180   0.183   0.178   0.178   0.187   0.182   0.189   0.186   0.185   0.193   0.191   0.202   0.206   0.207   0.196   0.191   0.191   0.191   0.198   0.198   0.198   0.198   0.194   0.199
    28.90    0.188   0.192   0.195   0.194   0.189   0.182   0.179   0.182   0.181   0.187   0.177   0.184   0.177   0.180   0.184   0.181   0.184   0.189   0.190   0.191   0.200   0.194   0.205   0.204   0.202   0.201   0.196   0.190   0.198   0.203   0.206   0.195   0.198   0.192   0.200
    24.25    0.195   0.194   0.189   0.188   0.197   0.186   0.182   0.184   0.187   0.186   0.185   0.180   0.181   0.179   0.184   0.186   0.189   0.186   0.199   0.197   0.198   0.198   0.193   0.196   0.197   0.191   0.190   0.192   0.196   0.198   0.203   0.204   0.200   0.203   0.201
    19.60    0.195   0.185   0.190   0.190   0.190   0.192   0.185   0.186   0.188   0.186   0.186   0.177   0.181   0.184   0.187   0.184   0.188   0.186   0.186   0.194   0.202   0.197   0.206   0.191   0.194   0.196   0.191   0.191   0.199   0.196   0.205   0.210   0.217   0.221   0.225
    14.95    0.195   0.196   0.197   0.201   0.196   0.194   0.190   0.182   0.181   0.186   0.188   0.179   0.174   0.178   0.182   0.183   0.177   0.185   0.184   0.197   0.207   0.199   0.196   0.208   0.197   0.192   0.197   0.196   0.196   0.200   0.209   0.211   0.210   0.217   0.223
    10.30    0.202   0.210   0.207   0.209   0.201   0.190   0.190   0.188   0.184   0.186   0.183   0.176   0.178   0.183   0.178   0.173   0.174   0.179   0.185   0.199   0.202   0.192   0.201   0.196   0.193   0.196   0.195   0.199   0.202   0.202   0.204   0.206   0.206   0.213   0.224
     5.65    0.200   0.207   0.212   0.213   0.210   0.194   0.192   0.189   0.184   0.183   0.190   0.181   0.184   0.184   0.181   0.180   0.182   0.186   0.192   0.196   0.205   0.205   0.203   0.191   0.192   0.195   0.200   0.196   0.200   0.203   0.203   0.201   0.200   0.210   0.216
     1.00    0.198   0.206   0.203   0.203   0.205   0.206   0.198   0.195   0.193   0.189   0.186   0.185   0.184   0.185   0.189   0.191   0.184   0.198   0.197   0.204   0.207   0.196   0.194   0.189   0.192   0.201   0.200   0.200   0.204   0.200   0.205   0.205   0.208   0.203   0.209

   Mean standard deviation across all grid points:
      u component:    0.421 m/s
      v component:    0.305 m/s
      w component:    0.192 m/s


U-component (X) statistics from the interpolated hub point:

   Mean =   9.9913 m/s
   TI   =   4.6443 %


Processing complete.  5810.9 CPU seconds used.
