
This summary file was generated by TurbSim (from OpenFAST-v3.5.3) on 20-Apr-2025 at 05:31:29.


Runtime Options:

**********  Random seed #1
    RANLUX  Type of random number generator
         F  Output binary HH turbulence parameters?
         F  Output formatted turbulence parameters?
         F  Output AeroDyn HH files?
         T  Output AeroDyn FF files?
         F  Output BLADED FF files?
         F  Output tower data?
         F  Output HAWC FF files?
         F  Output formatted FF files?
         T  Output coherent turbulence time step file?
 0 -  NONE  IEC turbulence models scaled to exact specified standard deviation


Turbine/Model Specifications:

        37  Vertical grid-point matrix dimension
        35  Horizontal grid-point matrix dimension
     0.250  Time step [seconds]
   900.000  Analysis time [seconds]
   900.000  Usable output time [seconds]
    89.350  Hub height [m]
   167.400  Grid height [m]
   158.100  Grid width [m]
     0.000  Vertical flow angle [degrees]
     0.000  Horizontal flow angle [degrees]


Meteorological Boundary Conditions:

    TIMESR  User-input time series spectral model
       N/A  IEC standard
       N/A  IEC turbulence characteristic
       N/A  IEC turbulence type
       N/A  IEC Extreme Turbulence Model (ETM) "c" parameter [m/s]
       PL   Wind profile type
    90.000  Reference height [m]
    10.000  Reference wind speed [m/s]
       N/A  Jet height [m]
     0.120  Power law exponent
     0.030  Surface roughness length [m]


Non-IEC Meteorological Boundary Conditions:

    45.000  Site latitude [degrees]
     0.050  Gradient Richardson number
     0.480  Friction or shear velocity [m/s]
       N/A  Mixing layer depth [m]
       N/A  Mean hub u'w' Reynolds stress
       N/A  Mean hub u'v' Reynolds stress
       N/A  Mean hub v'w' Reynolds stress


Spatial Coherence Models:

       IEC  u-component coherence model
       IEC  v-component coherence model
       IEC  w-component coherence model
(   12.000, 0.353E-03)  u-component coherence parameters
(   12.000, 0.353E-03)  v-component coherence parameters
(   12.000, 0.353E-03)  w-component coherence parameters
       N/A  Coherence exponent


Coherent Turbulence Scaling Parameters:

.\EventData
            Name of the path containing the coherent turbulence data files
       dns  Type of coherent turbulence data files
     1.000  Disturbance scale (ratio of wave height to rotor diameter)
     0.500  Fractional location of tower centerline from right
     0.500  Fractional location of hub height from the bottom of the dataset
    30.000  Minimum start time for coherent structures [seconds]


Profiles from User-Defined Time-Series Input:

  Height   Wind Speed   Horizontal Angle   Vertical Angle
   (m)        (m/s)          (deg)              (deg)    
  ------   ----------   ----------------   --------------
   94.00      10.00          -0.63                0.00


You have requested that the following file(s) be generated:

   /kfs3/scratch/agupta/Projects/RL_Incubator/FinalRuns_Veer/Seed4/./FFSim_Seed4/Cond00_v10.0_PL0.12_TI5.0/Case1_wdirp02/Seed_3/TurbSim/HighT14.bts (AeroDyn/TurbSim full-field wind file)


Turbulence Simulation Scaling Parameter Summary:

   Turbulence model used                            =  User-input time series
   Gradient Richardson number                       =    0.050
   Monin-Obukhov (M-O) z/L parameter                =    0.067
   Monin-Obukhov (M-O) length scale                 = 1340.250 m
   Mean wind speed at hub height                    =    9.991 m/s

   Wind profile type                                =  Power law
   Power law exponent                               =    0.120
   Mean shear across rotor disk                     =    0.019 (m/s)/m
   Assumed rotor diameter                           =  158.100 m
   Surface roughness length                         =    0.030 m

   Nyquist frequency of turbulent wind field        =    2.000 Hz

   Number of time steps in the FFT                  =     3600
   Number of time steps output                      =     3600
   Number of points simulated                       =     1296


Mean Flow Angles:

   Vertical   =   0.0 degrees
   Horizontal =   0.0 degrees

Mean Wind Speed Profile:

   Height    Wind Speed   Horizontal Angle  Vertical Angle  U-comp (X)   V-comp (Y)   W-comp (Z)
     (m)        (m/s)         (degrees)       (degrees)       (m/s)        (m/s)        (m/s)   
   ------    ----------   ----------------  --------------  ----------   ----------   ----------
    168.4       10.78            0.00            0.00         10.78         0.00         0.00
    163.7       10.74            0.00            0.00         10.74         0.00         0.00
    159.1       10.71            0.00            0.00         10.71         0.00         0.00
    154.4       10.67            0.00            0.00         10.67         0.00         0.00
    149.8       10.63            0.00            0.00         10.63         0.00         0.00
    145.1       10.59            0.00            0.00         10.59         0.00         0.00
    140.5       10.55            0.00            0.00         10.55         0.00         0.00
    135.8       10.51            0.00            0.00         10.51         0.00         0.00
    131.2       10.46            0.00            0.00         10.46         0.00         0.00
    126.5       10.42            0.00            0.00         10.42         0.00         0.00
    121.9       10.37            0.00            0.00         10.37         0.00         0.00
    117.2       10.32            0.00            0.00         10.32         0.00         0.00
    112.6       10.27            0.00            0.00         10.27         0.00         0.00
    107.9       10.22            0.00            0.00         10.22         0.00         0.00
    103.3       10.17            0.00            0.00         10.17         0.00         0.00
     98.6       10.11            0.00            0.00         10.11         0.00         0.00
     94.0       10.05            0.00            0.00         10.05         0.00         0.00
     89.3        9.99            0.00            0.00          9.99         0.00         0.00
     84.7        9.93            0.00            0.00          9.93         0.00         0.00
     80.0        9.86            0.00            0.00          9.86         0.00         0.00
     75.4        9.79            0.00            0.00          9.79         0.00         0.00
     70.7        9.72            0.00            0.00          9.72         0.00         0.00
     66.1        9.64            0.00            0.00          9.64         0.00         0.00
     61.4        9.55            0.00            0.00          9.55         0.00         0.00
     56.8        9.46            0.00            0.00          9.46         0.00         0.00
     52.1        9.37            0.00            0.00          9.37         0.00         0.00
     47.5        9.26            0.00            0.00          9.26         0.00         0.00
     42.8        9.15            0.00            0.00          9.15         0.00         0.00
     38.2        9.02            0.00            0.00          9.02         0.00         0.00
     33.5        8.88            0.00            0.00          8.88         0.00         0.00
     28.9        8.73            0.00            0.00          8.73         0.00         0.00
     24.2        8.54            0.00            0.00          8.54         0.00         0.00
     19.6        8.33            0.00            0.00          8.33         0.00         0.00
     14.9        8.06            0.00            0.00          8.06         0.00         0.00
     10.3        7.71            0.00            0.00          7.71         0.00         0.00
      5.6        7.17            0.00            0.00          7.17         0.00         0.00
      1.0        5.83            0.00            0.00          5.83         0.00         0.00


Harvested Random Seeds after Generation of the Random Numbers:

     65026800 K 1
            0 K 2


Hub-Height Simulated Turbulence Statistical Summary:

   Type of Wind        Min (m/s)   Mean (m/s)    Max (m/s)  Sigma (m/s)       TI (%)
   ----------------    ---------   ----------    ---------  -----------       ------
   Longitudinal (u)         8.42         9.99        11.41        0.463        4.631
   Lateral (v)             -1.48        -0.00         1.48        0.375        3.755
   Vertical (w)            -0.81        -0.00         0.92        0.249        2.493
   U component              8.42         9.99        11.41        0.463        4.631
   V component             -1.48        -0.00         1.48        0.375        3.755
   W component             -0.81        -0.00         0.92        0.249        2.493
   Horizontal (U&V)         8.43        10.00        11.41        0.463        4.631
   Total                    8.43        10.00        11.41        0.463        4.628

                       Min Reynolds     Mean Reynolds    Max Reynolds    Correlation
   Product             Stress (m/s)^2   Stress (m/s)^2   Stress (m/s)^2  Coefficient
   ----------------    --------------   --------------   --------------  -----------
   u'w'                     -0.662             0.002             0.564         0.018
   u'v'                     -0.790             0.016             1.488         0.089
   v'w'                     -0.583             0.006             0.600         0.063


   Friction Velocity (Ustar)  =      0.045 m/s
   Maximum Instantaneous TKE  =      1.590 (m/s)^2
   Maximum Instantaneous CTKE =      0.754 (m/s)^2


Grid Point Variance Summary:

   Y-coord  -79.05  -74.40  -69.75  -65.10  -60.45  -55.80  -51.15  -46.50  -41.85  -37.20  -32.55  -27.90  -23.25  -18.60  -13.95   -9.30   -4.65    0.00    4.65    9.30   13.95   18.60   23.25   27.90   32.55   37.20   41.85   46.50   51.15   55.80   60.45   65.10   69.75   74.40   79.05

   Height   Standard deviation at grid points for the u component:
   168.40    0.461   0.449   0.450   0.470   0.485   0.463   0.452   0.422   0.428   0.419   0.453   0.461   0.486   0.472   0.500   0.499   0.493   0.462   0.451   0.478   0.495   0.479   0.479   0.485   0.469   0.452   0.446   0.482   0.490   0.462   0.457   0.453   0.488   0.492   0.471
   163.75    0.453   0.489   0.483   0.512   0.479   0.481   0.438   0.427   0.421   0.448   0.440   0.465   0.504   0.500   0.476   0.495   0.494   0.480   0.481   0.497   0.513   0.517   0.527   0.486   0.509   0.473   0.462   0.472   0.501   0.498   0.482   0.448   0.504   0.486   0.477
   159.10    0.471   0.479   0.492   0.500   0.479   0.502   0.475   0.470   0.447   0.445   0.463   0.468   0.528   0.510   0.512   0.488   0.490   0.469   0.469   0.509   0.480   0.498   0.515   0.514   0.459   0.453   0.460   0.437   0.459   0.464   0.463   0.482   0.477   0.501   0.470
   154.45    0.439   0.483   0.477   0.519   0.524   0.516   0.497   0.489   0.446   0.486   0.473   0.496   0.544   0.512   0.485   0.465   0.460   0.478   0.465   0.469   0.474   0.479   0.510   0.476   0.454   0.409   0.413   0.436   0.413   0.436   0.478   0.498   0.493   0.491   0.476
   149.80    0.484   0.486   0.467   0.485   0.491   0.489   0.472   0.461   0.464   0.493   0.483   0.477   0.511   0.522   0.490   0.468   0.475   0.481   0.482   0.483   0.450   0.469   0.476   0.479   0.463   0.388   0.384   0.383   0.429   0.410   0.442   0.460   0.468   0.437   0.454
   145.15    0.496   0.486   0.488   0.518   0.526   0.512   0.513   0.493   0.503   0.512   0.491   0.479   0.505   0.500   0.487   0.496   0.475   0.488   0.458   0.466   0.471   0.451   0.466   0.472   0.441   0.396   0.387   0.379   0.387   0.431   0.439   0.472   0.457   0.448   0.487
   140.50    0.481   0.496   0.486   0.477   0.495   0.498   0.525   0.543   0.520   0.506   0.495   0.475   0.490   0.499   0.457   0.479   0.465   0.502   0.477   0.481   0.476   0.466   0.461   0.453   0.442   0.403   0.390   0.381   0.395   0.458   0.452   0.450   0.480   0.444   0.447
   135.85    0.477   0.457   0.444   0.426   0.445   0.471   0.525   0.512   0.539   0.532   0.548   0.539   0.523   0.483   0.515   0.496   0.515   0.534   0.534   0.483   0.446   0.446   0.441   0.412   0.409   0.396   0.389   0.393   0.413   0.437   0.474   0.460   0.451   0.445   0.459
   131.20    0.458   0.440   0.442   0.412   0.409   0.460   0.514   0.519   0.553   0.558   0.515   0.514   0.474   0.505   0.515   0.531   0.541   0.519   0.492   0.480   0.459   0.436   0.451   0.407   0.418   0.409   0.406   0.417   0.433   0.412   0.431   0.430   0.428   0.444   0.453
   126.55    0.426   0.431   0.399   0.408   0.409   0.487   0.524   0.521   0.550   0.514   0.506   0.504   0.509   0.510   0.512   0.485   0.493   0.504   0.481   0.475   0.483   0.464   0.460   0.454   0.433   0.442   0.417   0.391   0.422   0.438   0.419   0.436   0.430   0.439   0.433
   121.90    0.441   0.428   0.422   0.412   0.422   0.470   0.504   0.506   0.505   0.482   0.516   0.492   0.487   0.522   0.490   0.475   0.461   0.452   0.445   0.496   0.482   0.462   0.486   0.436   0.448   0.438   0.427   0.421   0.418   0.403   0.389   0.415   0.403   0.402   0.402
   117.25    0.437   0.436   0.420   0.417   0.444   0.475   0.477   0.476   0.478   0.483   0.481   0.462   0.507   0.486   0.491   0.446   0.442   0.472   0.477   0.483   0.515   0.484   0.505   0.473   0.466   0.451   0.428   0.410   0.422   0.403   0.403   0.398   0.402   0.390   0.392
   112.60    0.434   0.452   0.412   0.445   0.441   0.434   0.480   0.507   0.489   0.513   0.516   0.501   0.516   0.503   0.495   0.471   0.453   0.466   0.450   0.494   0.505   0.515   0.477   0.443   0.438   0.421   0.393   0.381   0.406   0.389   0.382   0.387   0.398   0.403   0.406
   107.95    0.409   0.416   0.447   0.472   0.450   0.455   0.445   0.486   0.471   0.486   0.493   0.476   0.483   0.470   0.489   0.486   0.510   0.477   0.444   0.460   0.487   0.519   0.440   0.470   0.439   0.386   0.409   0.392   0.387   0.361   0.381   0.345   0.355   0.375   0.354
   103.30    0.394   0.421   0.427   0.485   0.435   0.410   0.429   0.446   0.461   0.441   0.451   0.470   0.441   0.458   0.482   0.538   0.529   0.480   0.441   0.470   0.471   0.464   0.455   0.417   0.415   0.380   0.385   0.382   0.366   0.367   0.355   0.382   0.367   0.342   0.378
    98.65    0.414   0.421   0.445   0.446   0.443   0.394   0.412   0.414   0.430   0.436   0.448   0.434   0.440   0.425   0.481   0.510   0.513   0.490   0.444   0.459   0.483   0.459   0.435   0.435   0.421   0.407   0.377   0.372   0.358   0.337   0.352   0.374   0.390   0.359   0.401
    94.00    0.421   0.416   0.462   0.438   0.412   0.401   0.427   0.468   0.445   0.419   0.418   0.455   0.448   0.460   0.466   0.507   0.485   0.484   0.453   0.454   0.467   0.470   0.428   0.461   0.423   0.385   0.397   0.396   0.379   0.387   0.384   0.349   0.375   0.415   0.409
    89.35    0.422   0.447   0.438   0.431   0.423   0.407   0.442   0.459   0.445   0.444   0.450   0.457   0.452   0.491   0.479   0.471   0.461   0.463   0.475   0.487   0.456   0.456   0.460   0.465   0.454   0.407   0.379   0.373   0.383   0.389   0.397   0.360   0.397   0.419   0.428
    84.70    0.427   0.426   0.413   0.395   0.397   0.413   0.433   0.472   0.446   0.478   0.448   0.473   0.489   0.508   0.478   0.451   0.469   0.439   0.439   0.485   0.456   0.494   0.485   0.460   0.471   0.407   0.382   0.388   0.355   0.407   0.417   0.413   0.415   0.424   0.396
    80.05    0.425   0.434   0.416   0.395   0.373   0.403   0.398   0.443   0.473   0.455   0.486   0.490   0.493   0.496   0.487   0.465   0.478   0.454   0.406   0.468   0.460   0.463   0.445   0.445   0.442   0.434   0.405   0.428   0.387   0.414   0.405   0.433   0.442   0.431   0.434
    75.40    0.448   0.443   0.436   0.408   0.401   0.388   0.399   0.425   0.464   0.466   0.475   0.494   0.471   0.478   0.456   0.476   0.465   0.474   0.456   0.454   0.483   0.452   0.431   0.404   0.391   0.423   0.428   0.403   0.388   0.404   0.424   0.439   0.433   0.447   0.448
    70.75    0.442   0.432   0.412   0.430   0.421   0.402   0.413   0.394   0.440   0.442   0.436   0.451   0.446   0.460   0.472   0.448   0.449   0.472   0.450   0.459   0.465   0.454   0.454   0.408   0.426   0.397   0.402   0.408   0.390   0.426   0.428   0.442   0.466   0.438   0.477
    66.10    0.430   0.425   0.435   0.441   0.453   0.419   0.386   0.409   0.413   0.401   0.421   0.415   0.449   0.481   0.475   0.460   0.466   0.479   0.473   0.467   0.479   0.473   0.454   0.436   0.427   0.416   0.408   0.398   0.416   0.404   0.441   0.481   0.504   0.466   0.486
    61.45    0.423   0.387   0.415   0.417   0.441   0.404   0.369   0.402   0.410   0.394   0.396   0.382   0.437   0.481   0.468   0.462   0.449   0.484   0.462   0.467   0.443   0.454   0.460   0.471   0.437   0.442   0.424   0.431   0.436   0.436   0.497   0.509   0.537   0.526   0.458
    56.80    0.409   0.392   0.411   0.438   0.419   0.422   0.407   0.388   0.413   0.376   0.404   0.411   0.419   0.437   0.440   0.449   0.429   0.446   0.435   0.424   0.421   0.443   0.450   0.486   0.466   0.472   0.467   0.427   0.429   0.445   0.442   0.507   0.514   0.487   0.454
    52.15    0.394   0.392   0.407   0.417   0.428   0.415   0.429   0.443   0.395   0.398   0.405   0.381   0.426   0.446   0.415   0.420   0.426   0.401   0.396   0.419   0.419   0.439   0.443   0.442   0.424   0.443   0.462   0.456   0.449   0.461   0.460   0.478   0.465   0.483   0.465
    47.50    0.382   0.378   0.380   0.415   0.425   0.417   0.454   0.439   0.428   0.402   0.400   0.421   0.414   0.420   0.393   0.405   0.388   0.382   0.381   0.396   0.407   0.428   0.405   0.438   0.435   0.414   0.425   0.432   0.427   0.464   0.493   0.463   0.423   0.437   0.463
    42.85    0.413   0.391   0.400   0.403   0.405   0.431   0.448   0.426   0.423   0.448   0.429   0.411   0.398   0.397   0.384   0.395   0.390   0.377   0.394   0.408   0.425   0.422   0.390   0.405   0.418   0.419   0.413   0.452   0.435   0.461   0.472   0.436   0.417   0.421   0.400
    38.20    0.425   0.411   0.408   0.411   0.411   0.427   0.489   0.457   0.428   0.435   0.418   0.412   0.391   0.395   0.367   0.379   0.403   0.396   0.453   0.435   0.451   0.425   0.412   0.413   0.439   0.440   0.416   0.428   0.423   0.443   0.476   0.449   0.469   0.445   0.416
    33.55    0.418   0.414   0.398   0.411   0.397   0.447   0.482   0.466   0.429   0.418   0.405   0.384   0.401   0.383   0.364   0.387   0.424   0.438   0.450   0.450   0.453   0.445   0.420   0.402   0.416   0.454   0.429   0.432   0.443   0.456   0.459   0.422   0.490   0.441   0.462
    28.90    0.428   0.410   0.385   0.418   0.420   0.442   0.441   0.451   0.452   0.416   0.393   0.378   0.401   0.402   0.368   0.382   0.398   0.400   0.451   0.462   0.436   0.401   0.392   0.410   0.437   0.426   0.445   0.437   0.457   0.462   0.441   0.467   0.467   0.466   0.504
    24.25    0.417   0.415   0.413   0.419   0.472   0.423   0.422   0.452   0.443   0.423   0.392   0.412   0.383   0.396   0.406   0.377   0.385   0.414   0.436   0.474   0.454   0.430   0.417   0.414   0.440   0.462   0.458   0.463   0.489   0.450   0.454   0.462   0.450   0.484   0.463
    19.60    0.413   0.389   0.402   0.419   0.448   0.440   0.455   0.423   0.431   0.430   0.430   0.388   0.382   0.401   0.390   0.385   0.423   0.441   0.442   0.438   0.467   0.456   0.423   0.405   0.401   0.481   0.485   0.493   0.471   0.421   0.450   0.453   0.444   0.462   0.467
    14.95    0.442   0.413   0.411   0.410   0.471   0.474   0.450   0.420   0.437   0.408   0.414   0.393   0.394   0.381   0.395   0.428   0.439   0.446   0.442   0.448   0.457   0.455   0.411   0.383   0.438   0.471   0.475   0.503   0.487   0.457   0.448   0.462   0.454   0.462   0.431
    10.30    0.443   0.412   0.410   0.476   0.495   0.521   0.495   0.469   0.437   0.404   0.429   0.404   0.389   0.398   0.409   0.368   0.422   0.449   0.467   0.456   0.442   0.432   0.387   0.395   0.447   0.473   0.486   0.493   0.484   0.499   0.495   0.463   0.438   0.432   0.428
     5.65    0.469   0.419   0.400   0.484   0.517   0.523   0.523   0.486   0.458   0.400   0.398   0.386   0.385   0.384   0.399   0.390   0.406   0.451   0.460   0.469   0.408   0.420   0.396   0.379   0.439   0.443   0.469   0.488   0.510   0.498   0.491   0.439   0.438   0.409   0.438
     1.00    0.446   0.458   0.454   0.475   0.509   0.499   0.520   0.504   0.482   0.426   0.412   0.387   0.381   0.394   0.381   0.383   0.416   0.445   0.444   0.450   0.441   0.429   0.404   0.399   0.437   0.451   0.450   0.478   0.495   0.482   0.478   0.446   0.453   0.427   0.393

   Height   Standard deviation at grid points for the v component:
   168.40    0.352   0.360   0.359   0.367   0.367   0.381   0.383   0.408   0.394   0.413   0.403   0.393   0.390   0.391   0.398   0.376   0.376   0.380   0.398   0.394   0.371   0.363   0.357   0.341   0.349   0.353   0.376   0.388   0.392   0.417   0.404   0.387   0.378   0.385   0.385
   163.75    0.355   0.342   0.350   0.354   0.355   0.372   0.385   0.402   0.405   0.421   0.408   0.402   0.402   0.398   0.391   0.398   0.400   0.381   0.403   0.393   0.392   0.381   0.363   0.362   0.348   0.355   0.367   0.396   0.426   0.409   0.387   0.374   0.368   0.381   0.390
   159.10    0.355   0.347   0.356   0.359   0.354   0.373   0.393   0.396   0.409   0.409   0.414   0.413   0.399   0.389   0.400   0.401   0.415   0.407   0.386   0.386   0.380   0.374   0.373   0.382   0.365   0.347   0.385   0.413   0.421   0.412   0.386   0.369   0.371   0.389   0.375
   154.45    0.360   0.357   0.374   0.378   0.381   0.378   0.402   0.410   0.415   0.410   0.402   0.399   0.395   0.396   0.410   0.423   0.410   0.406   0.407   0.384   0.387   0.376   0.379   0.381   0.359   0.375   0.398   0.412   0.410   0.413   0.388   0.375   0.371   0.374   0.374
   149.80    0.377   0.365   0.365   0.388   0.390   0.415   0.404   0.414   0.414   0.411   0.382   0.406   0.398   0.395   0.407   0.417   0.433   0.409   0.401   0.399   0.403   0.389   0.375   0.381   0.369   0.383   0.381   0.384   0.390   0.394   0.385   0.366   0.361   0.369   0.373
   145.15    0.385   0.378   0.374   0.376   0.404   0.396   0.402   0.411   0.416   0.395   0.398   0.400   0.385   0.405   0.393   0.412   0.418   0.417   0.406   0.391   0.392   0.389   0.374   0.393   0.375   0.384   0.391   0.384   0.390   0.396   0.383   0.379   0.360   0.365   0.352
   140.50    0.404   0.385   0.386   0.393   0.393   0.371   0.382   0.400   0.420   0.422   0.402   0.388   0.393   0.410   0.410   0.434   0.426   0.412   0.387   0.408   0.396   0.380   0.390   0.377   0.392   0.382   0.420   0.398   0.385   0.384   0.391   0.395   0.360   0.378   0.358
   135.85    0.384   0.389   0.409   0.388   0.376   0.375   0.378   0.384   0.400   0.402   0.391   0.400   0.405   0.421   0.425   0.427   0.427   0.402   0.390   0.395   0.373   0.384   0.400   0.379   0.397   0.400   0.422   0.379   0.373   0.387   0.379   0.390   0.388   0.356   0.344
   131.20    0.379   0.405   0.396   0.401   0.376   0.358   0.380   0.378   0.375   0.384   0.393   0.392   0.419   0.427   0.421   0.418   0.417   0.391   0.409   0.396   0.403   0.387   0.394   0.396   0.375   0.387   0.392   0.392   0.376   0.382   0.389   0.383   0.375   0.353   0.358
   126.55    0.387   0.403   0.402   0.408   0.387   0.369   0.368   0.361   0.362   0.376   0.383   0.390   0.400   0.400   0.407   0.414   0.404   0.400   0.404   0.402   0.400   0.391   0.386   0.391   0.378   0.381   0.406   0.418   0.416   0.404   0.391   0.370   0.370   0.369   0.372
   121.90    0.389   0.369   0.377   0.386   0.364   0.358   0.354   0.359   0.359   0.356   0.374   0.375   0.381   0.389   0.398   0.399   0.406   0.411   0.397   0.399   0.396   0.374   0.374   0.373   0.361   0.386   0.408   0.396   0.416   0.401   0.376   0.377   0.387   0.366   0.375
   117.25    0.379   0.376   0.369   0.380   0.367   0.364   0.363   0.366   0.362   0.357   0.372   0.370   0.385   0.393   0.388   0.388   0.386   0.391   0.388   0.390   0.387   0.368   0.366   0.388   0.363   0.372   0.395   0.390   0.415   0.405   0.396   0.383   0.393   0.371   0.354
   112.60    0.382   0.382   0.379   0.386   0.370   0.350   0.356   0.354   0.360   0.374   0.372   0.375   0.387   0.387   0.382   0.382   0.382   0.380   0.394   0.395   0.386   0.389   0.368   0.363   0.380   0.369   0.393   0.407   0.408   0.409   0.412   0.399   0.392   0.377   0.364
   107.95    0.391   0.377   0.377   0.383   0.388   0.384   0.351   0.351   0.354   0.354   0.365   0.370   0.363   0.368   0.399   0.387   0.375   0.389   0.405   0.368   0.385   0.379   0.372   0.377   0.381   0.398   0.389   0.396   0.422   0.426   0.409   0.403   0.385   0.385   0.367
   103.30    0.385   0.377   0.372   0.392   0.395   0.387   0.370   0.366   0.356   0.372   0.355   0.363   0.375   0.370   0.365   0.378   0.370   0.377   0.392   0.393   0.379   0.372   0.369   0.370   0.379   0.387   0.400   0.405   0.410   0.425   0.411   0.413   0.378   0.379   0.368
    98.65    0.389   0.392   0.378   0.396   0.387   0.387   0.370   0.353   0.349   0.352   0.352   0.373   0.366   0.374   0.382   0.381   0.376   0.368   0.368   0.382   0.365   0.344   0.353   0.347   0.359   0.375   0.371   0.390   0.423   0.408   0.408   0.421   0.401   0.387   0.387
    94.00    0.390   0.388   0.386   0.388   0.390   0.389   0.373   0.360   0.351   0.355   0.363   0.359   0.374   0.364   0.377   0.372   0.378   0.365   0.354   0.359   0.343   0.356   0.340   0.347   0.361   0.377   0.377   0.405   0.418   0.396   0.419   0.424   0.409   0.410   0.408
    89.35    0.374   0.386   0.370   0.350   0.374   0.382   0.379   0.365   0.349   0.355   0.364   0.369   0.368   0.370   0.368   0.379   0.369   0.375   0.364   0.337   0.342   0.357   0.354   0.355   0.343   0.367   0.384   0.398   0.404   0.389   0.415   0.421   0.404   0.413   0.404
    84.70    0.347   0.368   0.356   0.344   0.364   0.381   0.385   0.384   0.375   0.354   0.372   0.367   0.358   0.371   0.365   0.369   0.364   0.378   0.368   0.355   0.340   0.341   0.352   0.356   0.363   0.364   0.375   0.386   0.385   0.409   0.392   0.406   0.412   0.392   0.414
    80.05    0.355   0.357   0.334   0.342   0.358   0.362   0.365   0.376   0.370   0.358   0.346   0.367   0.382   0.383   0.375   0.373   0.364   0.364   0.380   0.368   0.346   0.349   0.356   0.344   0.349   0.356   0.354   0.379   0.390   0.395   0.404   0.418   0.408   0.437   0.428
    75.40    0.342   0.353   0.343   0.356   0.352   0.356   0.363   0.377   0.364   0.355   0.353   0.357   0.379   0.361   0.364   0.367   0.364   0.354   0.374   0.374   0.354   0.359   0.352   0.331   0.340   0.323   0.360   0.374   0.377   0.400   0.418   0.421   0.405   0.408   0.422
    70.75    0.343   0.351   0.344   0.338   0.351   0.363   0.357   0.375   0.369   0.343   0.348   0.351   0.360   0.371   0.362   0.352   0.358   0.357   0.349   0.348   0.356   0.352   0.343   0.329   0.339   0.337   0.364   0.376   0.402   0.389   0.407   0.408   0.412   0.418   0.407
    66.10    0.339   0.333   0.332   0.338   0.329   0.347   0.344   0.354   0.372   0.353   0.341   0.348   0.358   0.355   0.352   0.353   0.355   0.363   0.360   0.348   0.363   0.340   0.346   0.341   0.332   0.338   0.353   0.374   0.387   0.382   0.378   0.375   0.397   0.396   0.397
    61.45    0.337   0.332   0.323   0.336   0.332   0.334   0.338   0.350   0.350   0.363   0.357   0.360   0.352   0.335   0.356   0.350   0.358   0.351   0.354   0.360   0.342   0.362   0.352   0.331   0.322   0.336   0.363   0.370   0.383   0.376   0.383   0.390   0.397   0.381   0.380
    56.80    0.337   0.341   0.340   0.342   0.333   0.334   0.346   0.359   0.358   0.360   0.371   0.375   0.362   0.357   0.354   0.367   0.361   0.346   0.344   0.348   0.347   0.353   0.348   0.347   0.338   0.351   0.355   0.367   0.357   0.370   0.375   0.393   0.396   0.392   0.383
    52.15    0.341   0.336   0.340   0.345   0.359   0.347   0.345   0.360   0.365   0.373   0.385   0.359   0.377   0.372   0.373   0.359   0.346   0.349   0.345   0.358   0.344   0.347   0.349   0.352   0.366   0.363   0.362   0.358   0.341   0.340   0.361   0.385   0.375   0.384   0.374
    47.50    0.346   0.346   0.358   0.351   0.369   0.357   0.364   0.353   0.375   0.367   0.388   0.389   0.405   0.384   0.354   0.362   0.345   0.354   0.342   0.340   0.344   0.347   0.357   0.359   0.374   0.364   0.378   0.352   0.356   0.358   0.378   0.359   0.362   0.379   0.379
    42.85    0.351   0.360   0.353   0.370   0.375   0.382   0.359   0.374   0.385   0.367   0.378   0.372   0.394   0.383   0.362   0.350   0.373   0.363   0.374   0.370   0.366   0.351   0.364   0.356   0.363   0.359   0.365   0.362   0.363   0.363   0.369   0.354   0.346   0.368   0.367
    38.20    0.369   0.363   0.359   0.375   0.377   0.383   0.370   0.355   0.365   0.354   0.361   0.370   0.374   0.376   0.380   0.359   0.360   0.378   0.384   0.365   0.374   0.358   0.366   0.355   0.340   0.343   0.350   0.366   0.367   0.360   0.352   0.346   0.349   0.359   0.363
    33.55    0.360   0.356   0.381   0.378   0.387   0.363   0.361   0.351   0.357   0.368   0.372   0.383   0.388   0.384   0.363   0.359   0.369   0.370   0.379   0.393   0.389   0.365   0.354   0.355   0.341   0.337   0.360   0.360   0.343   0.340   0.350   0.355   0.362   0.355   0.359
    28.90    0.349   0.356   0.371   0.390   0.375   0.380   0.352   0.358   0.353   0.363   0.365   0.389   0.392   0.409   0.385   0.381   0.376   0.375   0.380   0.385   0.379   0.381   0.367   0.364   0.339   0.338   0.350   0.365   0.345   0.341   0.334   0.336   0.344   0.357   0.375
    24.25    0.346   0.352   0.372   0.384   0.385   0.388   0.376   0.372   0.378   0.374   0.373   0.379   0.389   0.400   0.385   0.398   0.407   0.385   0.393   0.392   0.377   0.377   0.375   0.356   0.346   0.344   0.346   0.350   0.338   0.342   0.340   0.341   0.351   0.358   0.372
    19.60    0.353   0.367   0.375   0.367   0.380   0.370   0.376   0.345   0.373   0.363   0.377   0.373   0.377   0.392   0.404   0.394   0.408   0.393   0.381   0.387   0.388   0.368   0.364   0.343   0.348   0.322   0.336   0.344   0.334   0.346   0.357   0.357   0.349   0.346   0.367
    14.95    0.359   0.375   0.365   0.377   0.369   0.365   0.362   0.369   0.372   0.372   0.378   0.382   0.387   0.380   0.387   0.403   0.410   0.399   0.379   0.376   0.372   0.353   0.336   0.324   0.315   0.331   0.328   0.336   0.327   0.342   0.351   0.344   0.334   0.337   0.359
    10.30    0.363   0.362   0.386   0.382   0.379   0.367   0.374   0.373   0.367   0.353   0.362   0.377   0.379   0.389   0.391   0.390   0.421   0.396   0.387   0.384   0.371   0.357   0.319   0.336   0.333   0.317   0.314   0.341   0.337   0.338   0.336   0.321   0.345   0.342   0.352
     5.65    0.375   0.377   0.377   0.379   0.385   0.381   0.367   0.364   0.359   0.352   0.364   0.369   0.380   0.379   0.385   0.384   0.408   0.418   0.398   0.384   0.360   0.362   0.346   0.351   0.331   0.326   0.321   0.324   0.334   0.342   0.324   0.343   0.332   0.350   0.361
     1.00    0.362   0.353   0.359   0.358   0.361   0.369   0.346   0.346   0.357   0.344   0.367   0.379   0.373   0.381   0.401   0.389   0.377   0.396   0.380   0.381   0.369   0.366   0.360   0.357   0.342   0.341   0.347   0.337   0.347   0.351   0.333   0.350   0.343   0.360   0.367

   Height   Standard deviation at grid points for the w component:
   168.40    0.249   0.251   0.245   0.240   0.239   0.241   0.247   0.242   0.239   0.242   0.247   0.258   0.244   0.236   0.246   0.247   0.241   0.249   0.245   0.243   0.240   0.234   0.237   0.229   0.220   0.230   0.240   0.229   0.227   0.221   0.224   0.231   0.237   0.240   0.242
   163.75    0.242   0.242   0.234   0.241   0.235   0.245   0.240   0.236   0.233   0.241   0.248   0.255   0.252   0.241   0.245   0.248   0.250   0.242   0.238   0.236   0.236   0.228   0.230   0.234   0.226   0.232   0.234   0.230   0.233   0.225   0.231   0.236   0.239   0.237   0.238
   159.10    0.248   0.240   0.237   0.240   0.242   0.242   0.241   0.241   0.236   0.239   0.251   0.260   0.247   0.253   0.254   0.247   0.236   0.232   0.231   0.229   0.243   0.235   0.237   0.230   0.231   0.238   0.244   0.244   0.243   0.229   0.239   0.247   0.240   0.235   0.238
   154.45    0.236   0.238   0.230   0.237   0.244   0.245   0.239   0.231   0.231   0.233   0.244   0.252   0.256   0.244   0.251   0.242   0.235   0.227   0.236   0.239   0.242   0.235   0.239   0.233   0.240   0.242   0.250   0.245   0.247   0.233   0.231   0.237   0.230   0.229   0.241
   149.80    0.237   0.234   0.241   0.242   0.239   0.244   0.237   0.232   0.240   0.239   0.247   0.255   0.253   0.254   0.251   0.243   0.239   0.233   0.228   0.240   0.240   0.235   0.235   0.237   0.238   0.240   0.245   0.243   0.237   0.245   0.236   0.242   0.232   0.240   0.240
   145.15    0.241   0.239   0.251   0.246   0.242   0.239   0.231   0.240   0.239   0.240   0.248   0.251   0.255   0.254   0.249   0.247   0.255   0.244   0.242   0.251   0.245   0.246   0.244   0.233   0.228   0.226   0.232   0.236   0.238   0.234   0.238   0.234   0.233   0.237   0.247
   140.50    0.242   0.244   0.243   0.239   0.229   0.230   0.231   0.236   0.246   0.243   0.242   0.245   0.248   0.256   0.254   0.256   0.255   0.245   0.241   0.246   0.238   0.242   0.241   0.240   0.225   0.234   0.230   0.238   0.234   0.236   0.241   0.232   0.238   0.236   0.241
   135.85    0.246   0.246   0.240   0.243   0.231   0.232   0.235   0.237   0.249   0.253   0.244   0.254   0.250   0.252   0.252   0.255   0.239   0.236   0.246   0.238   0.235   0.245   0.244   0.240   0.235   0.228   0.230   0.244   0.235   0.232   0.239   0.238   0.242   0.242   0.237
   131.20    0.247   0.251   0.245   0.247   0.248   0.236   0.235   0.239   0.249   0.253   0.257   0.256   0.249   0.254   0.240   0.244   0.241   0.244   0.238   0.238   0.240   0.236   0.237   0.236   0.233   0.228   0.224   0.232   0.237   0.242   0.243   0.245   0.243   0.244   0.239
   126.55    0.243   0.243   0.245   0.247   0.242   0.234   0.230   0.239   0.247   0.244   0.253   0.243   0.257   0.253   0.248   0.237   0.235   0.237   0.243   0.237   0.239   0.232   0.234   0.231   0.232   0.228   0.230   0.236   0.232   0.236   0.227   0.231   0.228   0.237   0.237
   121.90    0.242   0.240   0.243   0.249   0.250   0.237   0.245   0.239   0.251   0.248   0.253   0.243   0.249   0.252   0.243   0.249   0.252   0.242   0.227   0.234   0.235   0.237   0.240   0.247   0.233   0.239   0.231   0.225   0.230   0.231   0.225   0.227   0.231   0.236   0.239
   117.25    0.238   0.245   0.243   0.246   0.250   0.250   0.243   0.242   0.243   0.246   0.252   0.244   0.249   0.241   0.245   0.250   0.248   0.247   0.236   0.231   0.241   0.238   0.236   0.245   0.257   0.237   0.223   0.229   0.237   0.233   0.224   0.231   0.232   0.233   0.229
   112.60    0.244   0.252   0.252   0.245   0.245   0.237   0.243   0.239   0.246   0.245   0.249   0.263   0.257   0.248   0.252   0.252   0.255   0.247   0.241   0.237   0.240   0.239   0.246   0.248   0.253   0.240   0.236   0.236   0.244   0.232   0.231   0.229   0.236   0.228   0.228
   107.95    0.254   0.253   0.260   0.250   0.251   0.251   0.246   0.244   0.247   0.235   0.246   0.259   0.250   0.250   0.247   0.256   0.255   0.244   0.242   0.239   0.230   0.242   0.237   0.240   0.239   0.247   0.244   0.230   0.239   0.244   0.245   0.240   0.241   0.235   0.237
   103.30    0.252   0.251   0.251   0.261   0.247   0.253   0.247   0.254   0.253   0.246   0.246   0.251   0.250   0.253   0.254   0.253   0.253   0.251   0.239   0.228   0.234   0.226   0.234   0.233   0.239   0.231   0.241   0.240   0.242   0.244   0.246   0.245   0.252   0.245   0.239
    98.65    0.248   0.249   0.242   0.256   0.249   0.251   0.250   0.253   0.252   0.260   0.257   0.253   0.246   0.256   0.255   0.252   0.248   0.252   0.246   0.234   0.233   0.225   0.231   0.236   0.241   0.234   0.235   0.238   0.237   0.246   0.250   0.245   0.255   0.250   0.239
    94.00    0.247   0.240   0.243   0.243   0.246   0.251   0.252   0.256   0.262   0.265   0.260   0.254   0.247   0.250   0.249   0.258   0.248   0.248   0.246   0.247   0.238   0.229   0.226   0.238   0.236   0.242   0.239   0.239   0.237   0.240   0.251   0.242   0.248   0.238   0.236
    89.35    0.250   0.246   0.244   0.235   0.245   0.246   0.241   0.253   0.262   0.259   0.245   0.248   0.257   0.257   0.250   0.246   0.245   0.249   0.254   0.254   0.243   0.233   0.233   0.234   0.226   0.235   0.234   0.238   0.239   0.240   0.247   0.258   0.250   0.246   0.242
    84.70    0.256   0.251   0.244   0.240   0.246   0.251   0.251   0.260   0.260   0.264   0.258   0.253   0.251   0.257   0.248   0.244   0.244   0.234   0.250   0.246   0.236   0.239   0.238   0.238   0.234   0.252   0.239   0.240   0.234   0.244   0.246   0.250   0.249   0.247   0.249
    80.05    0.246   0.244   0.238   0.241   0.254   0.260   0.254   0.258   0.261   0.261   0.261   0.260   0.258   0.252   0.240   0.246   0.245   0.238   0.238   0.246   0.245   0.233   0.236   0.239   0.249   0.248   0.245   0.244   0.249   0.250   0.249   0.255   0.244   0.248   0.244
    75.40    0.243   0.234   0.240   0.249   0.244   0.263   0.257   0.265   0.259   0.251   0.259   0.251   0.254   0.257   0.253   0.247   0.242   0.239   0.240   0.247   0.249   0.242   0.256   0.250   0.244   0.239   0.244   0.245   0.240   0.250   0.253   0.251   0.253   0.244   0.240
    70.75    0.236   0.247   0.243   0.246   0.249   0.260   0.265   0.258   0.263   0.254   0.252   0.253   0.252   0.247   0.253   0.252   0.242   0.236   0.246   0.250   0.242   0.231   0.245   0.252   0.249   0.239   0.238   0.241   0.242   0.241   0.240   0.241   0.252   0.246   0.235
    66.10    0.235   0.240   0.247   0.255   0.257   0.258   0.259   0.261   0.248   0.254   0.249   0.257   0.253   0.251   0.253   0.241   0.241   0.246   0.244   0.251   0.251   0.244   0.248   0.251   0.251   0.250   0.248   0.245   0.249   0.242   0.244   0.248   0.243   0.243   0.230
    61.45    0.238   0.242   0.246   0.256   0.252   0.255   0.261   0.256   0.254   0.253   0.251   0.247   0.240   0.240   0.245   0.243   0.250   0.247   0.245   0.253   0.253   0.245   0.243   0.251   0.240   0.247   0.252   0.239   0.240   0.237   0.254   0.251   0.242   0.244   0.231
    56.80    0.237   0.239   0.244   0.248   0.248   0.251   0.254   0.258   0.256   0.253   0.252   0.239   0.241   0.245   0.241   0.244   0.242   0.247   0.255   0.253   0.244   0.248   0.251   0.245   0.242   0.245   0.241   0.242   0.240   0.245   0.249   0.247   0.239   0.248   0.239
    52.15    0.234   0.241   0.242   0.242   0.243   0.257   0.259   0.249   0.247   0.253   0.255   0.246   0.249   0.257   0.250   0.242   0.239   0.254   0.257   0.251   0.241   0.242   0.240   0.245   0.243   0.249   0.244   0.239   0.243   0.237   0.244   0.241   0.240   0.244   0.251
    47.50    0.239   0.239   0.246   0.240   0.239   0.245   0.240   0.244   0.246   0.245   0.245   0.243   0.246   0.255   0.253   0.245   0.250   0.248   0.251   0.258   0.249   0.249   0.252   0.244   0.243   0.242   0.242   0.245   0.240   0.232   0.242   0.245   0.235   0.243   0.248
    42.85    0.230   0.243   0.241   0.237   0.248   0.238   0.242   0.241   0.237   0.237   0.235   0.238   0.246   0.250   0.242   0.245   0.245   0.251   0.250   0.258   0.247   0.248   0.248   0.252   0.250   0.247   0.241   0.242   0.238   0.240   0.247   0.242   0.247   0.239   0.246
    38.20    0.243   0.237   0.228   0.241   0.243   0.240   0.239   0.241   0.239   0.232   0.232   0.246   0.242   0.249   0.240   0.240   0.250   0.246   0.244   0.249   0.246   0.249   0.253   0.248   0.247   0.262   0.241   0.240   0.235   0.247   0.245   0.237   0.229   0.239   0.245
    33.55    0.234   0.234   0.235   0.242   0.236   0.234   0.245   0.247   0.232   0.223   0.235   0.237   0.247   0.245   0.231   0.235   0.242   0.237   0.250   0.247   0.253   0.247   0.247   0.241   0.246   0.250   0.239   0.242   0.239   0.242   0.240   0.241   0.233   0.245   0.250
    28.90    0.234   0.236   0.240   0.239   0.226   0.230   0.228   0.234   0.237   0.231   0.242   0.251   0.249   0.250   0.243   0.234   0.234   0.230   0.243   0.244   0.245   0.249   0.248   0.254   0.248   0.247   0.241   0.240   0.244   0.245   0.251   0.240   0.241   0.242   0.250
    24.25    0.232   0.232   0.241   0.242   0.227   0.235   0.231   0.233   0.238   0.243   0.242   0.241   0.244   0.246   0.243   0.239   0.223   0.224   0.234   0.245   0.246   0.251   0.243   0.249   0.239   0.244   0.240   0.247   0.253   0.254   0.252   0.249   0.240   0.246   0.251
    19.60    0.226   0.232   0.241   0.241   0.240   0.235   0.235   0.241   0.243   0.242   0.239   0.246   0.247   0.245   0.242   0.236   0.232   0.230   0.232   0.250   0.242   0.249   0.247   0.245   0.239   0.252   0.252   0.249   0.250   0.252   0.252   0.253   0.245   0.239   0.242
    14.95    0.235   0.239   0.237   0.239   0.241   0.240   0.238   0.235   0.242   0.234   0.239   0.249   0.240   0.238   0.241   0.232   0.227   0.231   0.235   0.242   0.254   0.256   0.254   0.247   0.257   0.254   0.251   0.248   0.245   0.244   0.251   0.249   0.241   0.244   0.251
    10.30    0.242   0.242   0.236   0.234   0.238   0.242   0.240   0.241   0.231   0.232   0.239   0.230   0.239   0.233   0.235   0.225   0.229   0.234   0.239   0.236   0.242   0.252   0.251   0.248   0.250   0.254   0.252   0.250   0.253   0.244   0.233   0.239   0.244   0.234   0.248
     5.65    0.240   0.236   0.233   0.243   0.243   0.244   0.245   0.237   0.228   0.237   0.239   0.238   0.241   0.226   0.227   0.226   0.230   0.234   0.234   0.232   0.234   0.245   0.246   0.240   0.249   0.252   0.254   0.245   0.245   0.232   0.232   0.231   0.228   0.232   0.235
     1.00    0.236   0.237   0.240   0.250   0.249   0.246   0.243   0.238   0.232   0.235   0.246   0.239   0.239   0.230   0.231   0.236   0.237   0.232   0.243   0.241   0.243   0.242   0.239   0.241   0.239   0.240   0.237   0.244   0.239   0.238   0.230   0.225   0.231   0.235   0.233

   Mean standard deviation across all grid points:
      u component:    0.445 m/s
      v component:    0.374 m/s
      w component:    0.243 m/s


U-component (X) statistics from the interpolated hub point:

   Mean =   9.9913 m/s
   TI   =   4.6309 %


Processing complete.  6283.4 CPU seconds used.
