
This summary file was generated by TurbSim (from OpenFAST-v3.5.3) on 20-Apr-2025 at 08:56:47.


Runtime Options:

1682697194  Random seed #1
    RANLUX  Type of random number generator
         F  Output binary HH turbulence parameters?
         F  Output formatted turbulence parameters?
         F  Output AeroDyn HH files?
         T  Output AeroDyn FF files?
         F  Output BLADED FF files?
         F  Output tower data?
         F  Output HAWC FF files?
         F  Output formatted FF files?
         T  Output coherent turbulence time step file?
 0 -  NONE  IEC turbulence models scaled to exact specified standard deviation


Turbine/Model Specifications:

        37  Vertical grid-point matrix dimension
        35  Horizontal grid-point matrix dimension
     0.250  Time step [seconds]
   900.000  Analysis time [seconds]
   900.000  Usable output time [seconds]
    89.350  Hub height [m]
   167.400  Grid height [m]
   158.100  Grid width [m]
     0.000  Vertical flow angle [degrees]
     0.000  Horizontal flow angle [degrees]


Meteorological Boundary Conditions:

    TIMESR  User-input time series spectral model
       N/A  IEC standard
       N/A  IEC turbulence characteristic
       N/A  IEC turbulence type
       N/A  IEC Extreme Turbulence Model (ETM) "c" parameter [m/s]
       PL   Wind profile type
    90.000  Reference height [m]
    10.000  Reference wind speed [m/s]
       N/A  Jet height [m]
     0.120  Power law exponent
     0.030  Surface roughness length [m]


Non-IEC Meteorological Boundary Conditions:

    45.000  Site latitude [degrees]
     0.050  Gradient Richardson number
     0.480  Friction or shear velocity [m/s]
       N/A  Mixing layer depth [m]
       N/A  Mean hub u'w' Reynolds stress
       N/A  Mean hub u'v' Reynolds stress
       N/A  Mean hub v'w' Reynolds stress


Spatial Coherence Models:

       IEC  u-component coherence model
       IEC  v-component coherence model
       IEC  w-component coherence model
(   12.000, 0.353E-03)  u-component coherence parameters
(   12.000, 0.353E-03)  v-component coherence parameters
(   12.000, 0.353E-03)  w-component coherence parameters
       N/A  Coherence exponent


Coherent Turbulence Scaling Parameters:

.\EventData
            Name of the path containing the coherent turbulence data files
       les  Type of coherent turbulence data files
     0.500  Disturbance scale (ratio of wave height to rotor diameter)
     0.500  Fractional location of tower centerline from right
     0.000  Fractional location of hub height from the bottom of the dataset
    30.000  Minimum start time for coherent structures [seconds]


Profiles from User-Defined Time-Series Input:

  Height   Wind Speed   Horizontal Angle   Vertical Angle
   (m)        (m/s)          (deg)              (deg)    
  ------   ----------   ----------------   --------------
   94.00      10.00          -0.63                0.00


You have requested that the following file(s) be generated:

   /kfs3/scratch/agupta/Projects/RL_Incubator/FinalRuns_Veer/Seed4/./FFSim_Seed4/Cond00_v10.0_PL0.12_TI4.0/Case2_wdirp04/Seed_5/TurbSim/HighT4.bts (AeroDyn/TurbSim full-field wind file)


Turbulence Simulation Scaling Parameter Summary:

   Turbulence model used                            =  User-input time series
   Gradient Richardson number                       =    0.050
   Monin-Obukhov (M-O) z/L parameter                =    0.067
   Monin-Obukhov (M-O) length scale                 = 1340.250 m
   Mean wind speed at hub height                    =    9.991 m/s

   Wind profile type                                =  Power law
   Power law exponent                               =    0.120
   Mean shear across rotor disk                     =    0.019 (m/s)/m
   Assumed rotor diameter                           =  158.100 m
   Surface roughness length                         =    0.030 m

   Nyquist frequency of turbulent wind field        =    2.000 Hz

   Number of time steps in the FFT                  =     3600
   Number of time steps output                      =     3600
   Number of points simulated                       =     1296


Mean Flow Angles:

   Vertical   =   0.0 degrees
   Horizontal =   0.0 degrees

Mean Wind Speed Profile:

   Height    Wind Speed   Horizontal Angle  Vertical Angle  U-comp (X)   V-comp (Y)   W-comp (Z)
     (m)        (m/s)         (degrees)       (degrees)       (m/s)        (m/s)        (m/s)   
   ------    ----------   ----------------  --------------  ----------   ----------   ----------
    168.4       10.78            0.00            0.00         10.78         0.00         0.00
    163.7       10.74            0.00            0.00         10.74         0.00         0.00
    159.1       10.71            0.00            0.00         10.71         0.00         0.00
    154.4       10.67            0.00            0.00         10.67         0.00         0.00
    149.8       10.63            0.00            0.00         10.63         0.00         0.00
    145.1       10.59            0.00            0.00         10.59         0.00         0.00
    140.5       10.55            0.00            0.00         10.55         0.00         0.00
    135.8       10.51            0.00            0.00         10.51         0.00         0.00
    131.2       10.46            0.00            0.00         10.46         0.00         0.00
    126.5       10.42            0.00            0.00         10.42         0.00         0.00
    121.9       10.37            0.00            0.00         10.37         0.00         0.00
    117.2       10.32            0.00            0.00         10.32         0.00         0.00
    112.6       10.27            0.00            0.00         10.27         0.00         0.00
    107.9       10.22            0.00            0.00         10.22         0.00         0.00
    103.3       10.17            0.00            0.00         10.17         0.00         0.00
     98.6       10.11            0.00            0.00         10.11         0.00         0.00
     94.0       10.05            0.00            0.00         10.05         0.00         0.00
     89.3        9.99            0.00            0.00          9.99         0.00         0.00
     84.7        9.93            0.00            0.00          9.93         0.00         0.00
     80.0        9.86            0.00            0.00          9.86         0.00         0.00
     75.4        9.79            0.00            0.00          9.79         0.00         0.00
     70.7        9.72            0.00            0.00          9.72         0.00         0.00
     66.1        9.64            0.00            0.00          9.64         0.00         0.00
     61.4        9.55            0.00            0.00          9.55         0.00         0.00
     56.8        9.46            0.00            0.00          9.46         0.00         0.00
     52.1        9.37            0.00            0.00          9.37         0.00         0.00
     47.5        9.26            0.00            0.00          9.26         0.00         0.00
     42.8        9.15            0.00            0.00          9.15         0.00         0.00
     38.2        9.02            0.00            0.00          9.02         0.00         0.00
     33.5        8.88            0.00            0.00          8.88         0.00         0.00
     28.9        8.73            0.00            0.00          8.73         0.00         0.00
     24.2        8.54            0.00            0.00          8.54         0.00         0.00
     19.6        8.33            0.00            0.00          8.33         0.00         0.00
     14.9        8.06            0.00            0.00          8.06         0.00         0.00
     10.3        7.71            0.00            0.00          7.71         0.00         0.00
      5.6        7.17            0.00            0.00          7.17         0.00         0.00
      1.0        5.83            0.00            0.00          5.83         0.00         0.00


Harvested Random Seeds after Generation of the Random Numbers:

     65026800 K 1
            0 K 2


Hub-Height Simulated Turbulence Statistical Summary:

   Type of Wind        Min (m/s)   Mean (m/s)    Max (m/s)  Sigma (m/s)       TI (%)
   ----------------    ---------   ----------    ---------  -----------       ------
   Longitudinal (u)         8.87         9.99        11.18        0.361        3.615
   Lateral (v)             -0.91         0.00         0.93        0.288        2.881
   Vertical (w)            -0.62        -0.00         0.68        0.199        1.994
   U component              8.87         9.99        11.18        0.361        3.615
   V component             -0.91         0.00         0.93        0.288        2.881
   W component             -0.62        -0.00         0.68        0.199        1.994
   Horizontal (U&V)         8.87        10.00        11.18        0.361        3.616
   Total                    8.87        10.00        11.18        0.361        3.613

                       Min Reynolds     Mean Reynolds    Max Reynolds    Correlation
   Product             Stress (m/s)^2   Stress (m/s)^2   Stress (m/s)^2  Coefficient
   ----------------    --------------   --------------   --------------  -----------
   u'w'                     -0.336             0.004             0.490         0.056
   u'v'                     -0.684            -0.009             0.594        -0.088
   v'w'                     -0.321            -0.000             0.380        -0.001


   Friction Velocity (Ustar)  =      0.063 m/s
   Maximum Instantaneous TKE  =      0.727 (m/s)^2
   Maximum Instantaneous CTKE =      0.343 (m/s)^2


Grid Point Variance Summary:

   Y-coord  -79.05  -74.40  -69.75  -65.10  -60.45  -55.80  -51.15  -46.50  -41.85  -37.20  -32.55  -27.90  -23.25  -18.60  -13.95   -9.30   -4.65    0.00    4.65    9.30   13.95   18.60   23.25   27.90   32.55   37.20   41.85   46.50   51.15   55.80   60.45   65.10   69.75   74.40   79.05

   Height   Standard deviation at grid points for the u component:
   168.40    0.387   0.368   0.382   0.374   0.387   0.402   0.414   0.409   0.396   0.389   0.390   0.389   0.379   0.361   0.364   0.368   0.377   0.377   0.373   0.380   0.374   0.367   0.395   0.397   0.383   0.389   0.401   0.400   0.388   0.376   0.381   0.361   0.351   0.344   0.351
   163.75    0.368   0.364   0.343   0.385   0.377   0.377   0.393   0.390   0.388   0.396   0.392   0.407   0.397   0.401   0.390   0.383   0.385   0.362   0.365   0.383   0.380   0.376   0.395   0.401   0.389   0.376   0.366   0.380   0.372   0.366   0.351   0.359   0.353   0.367   0.341
   159.10    0.383   0.376   0.372   0.391   0.389   0.387   0.401   0.393   0.386   0.371   0.379   0.400   0.412   0.412   0.383   0.367   0.385   0.382   0.384   0.370   0.382   0.383   0.407   0.389   0.410   0.398   0.370   0.354   0.356   0.376   0.354   0.322   0.338   0.350   0.333
   154.45    0.378   0.373   0.382   0.378   0.354   0.353   0.363   0.377   0.384   0.385   0.391   0.386   0.384   0.378   0.371   0.370   0.378   0.357   0.378   0.398   0.384   0.356   0.370   0.393   0.377   0.367   0.350   0.358   0.347   0.347   0.353   0.330   0.330   0.336   0.347
   149.80    0.371   0.385   0.378   0.376   0.373   0.354   0.373   0.359   0.370   0.380   0.364   0.371   0.372   0.372   0.354   0.363   0.356   0.363   0.368   0.387   0.374   0.348   0.377   0.391   0.370   0.377   0.341   0.362   0.340   0.351   0.344   0.335   0.344   0.363   0.351
   145.15    0.372   0.375   0.347   0.359   0.364   0.361   0.379   0.371   0.382   0.394   0.364   0.364   0.377   0.358   0.351   0.339   0.380   0.359   0.376   0.369   0.387   0.374   0.367   0.370   0.388   0.380   0.368   0.341   0.331   0.354   0.343   0.340   0.332   0.342   0.336
   140.50    0.365   0.358   0.352   0.347   0.337   0.361   0.368   0.354   0.383   0.387   0.389   0.364   0.367   0.372   0.365   0.358   0.375   0.369   0.361   0.376   0.394   0.391   0.404   0.377   0.399   0.378   0.361   0.354   0.345   0.357   0.343   0.336   0.340   0.327   0.327
   135.85    0.345   0.339   0.343   0.354   0.359   0.352   0.383   0.361   0.360   0.367   0.381   0.374   0.371   0.392   0.391   0.379   0.387   0.384   0.355   0.398   0.422   0.427   0.412   0.399   0.382   0.395   0.402   0.372   0.373   0.398   0.352   0.336   0.330   0.341   0.340
   131.20    0.358   0.340   0.349   0.383   0.348   0.351   0.388   0.389   0.395   0.378   0.361   0.353   0.363   0.383   0.384   0.374   0.386   0.393   0.387   0.392   0.384   0.412   0.398   0.391   0.390   0.390   0.401   0.389   0.397   0.404   0.352   0.341   0.349   0.360   0.360
   126.55    0.343   0.343   0.346   0.332   0.344   0.356   0.380   0.391   0.402   0.408   0.382   0.370   0.386   0.387   0.373   0.396   0.391   0.369   0.374   0.363   0.372   0.393   0.386   0.389   0.394   0.411   0.384   0.406   0.378   0.368   0.374   0.346   0.363   0.370   0.365
   121.90    0.341   0.341   0.324   0.325   0.352   0.362   0.376   0.396   0.416   0.397   0.376   0.389   0.378   0.396   0.397   0.403   0.383   0.374   0.350   0.356   0.355   0.386   0.397   0.389   0.416   0.412   0.393   0.401   0.392   0.379   0.368   0.363   0.364   0.377   0.377
   117.25    0.362   0.332   0.325   0.328   0.332   0.364   0.373   0.380   0.388   0.380   0.364   0.388   0.379   0.405   0.422   0.390   0.377   0.379   0.380   0.359   0.397   0.381   0.403   0.363   0.389   0.403   0.410   0.406   0.395   0.382   0.374   0.384   0.392   0.392   0.388
   112.60    0.351   0.361   0.354   0.331   0.339   0.356   0.378   0.376   0.381   0.373   0.384   0.389   0.397   0.393   0.376   0.412   0.394   0.385   0.394   0.373   0.399   0.377   0.391   0.369   0.395   0.390   0.400   0.388   0.398   0.394   0.385   0.387   0.390   0.396   0.392
   107.95    0.359   0.361   0.366   0.369   0.348   0.369   0.380   0.386   0.409   0.383   0.371   0.405   0.391   0.378   0.380   0.378   0.379   0.390   0.383   0.378   0.378   0.378   0.372   0.408   0.396   0.392   0.374   0.379   0.391   0.391   0.384   0.391   0.399   0.403   0.406
   103.30    0.362   0.356   0.382   0.367   0.382   0.396   0.388   0.380   0.398   0.380   0.376   0.386   0.402   0.379   0.372   0.352   0.359   0.359   0.363   0.378   0.380   0.386   0.407   0.416   0.411   0.406   0.397   0.381   0.373   0.379   0.400   0.376   0.397   0.417   0.410
    98.65    0.387   0.362   0.377   0.370   0.397   0.385   0.369   0.372   0.383   0.410   0.388   0.397   0.418   0.408   0.376   0.366   0.380   0.365   0.359   0.383   0.384   0.409   0.403   0.411   0.417   0.404   0.402   0.404   0.372   0.399   0.385   0.370   0.395   0.400   0.403
    94.00    0.376   0.377   0.386   0.406   0.410   0.393   0.377   0.380   0.376   0.388   0.403   0.412   0.422   0.403   0.402   0.376   0.378   0.358   0.347   0.392   0.414   0.415   0.410   0.390   0.412   0.416   0.433   0.413   0.400   0.393   0.377   0.375   0.364   0.380   0.378
    89.35    0.361   0.374   0.401   0.401   0.400   0.398   0.392   0.389   0.376   0.391   0.398   0.399   0.404   0.410   0.396   0.408   0.385   0.361   0.373   0.406   0.415   0.391   0.398   0.394   0.407   0.410   0.402   0.417   0.411   0.391   0.377   0.345   0.340   0.366   0.385
    84.70    0.375   0.388   0.387   0.407   0.417   0.419   0.410   0.379   0.390   0.390   0.413   0.427   0.420   0.424   0.409   0.413   0.389   0.383   0.402   0.418   0.421   0.418   0.399   0.417   0.409   0.405   0.406   0.399   0.402   0.382   0.366   0.358   0.351   0.364   0.389
    80.05    0.395   0.397   0.390   0.412   0.418   0.419   0.421   0.403   0.378   0.386   0.409   0.433   0.431   0.439   0.428   0.429   0.406   0.397   0.404   0.405   0.426   0.412   0.410   0.420   0.431   0.431   0.428   0.418   0.422   0.400   0.401   0.380   0.378   0.371   0.370
    75.40    0.381   0.394   0.405   0.418   0.423   0.441   0.418   0.396   0.391   0.407   0.415   0.433   0.426   0.442   0.423   0.407   0.396   0.408   0.396   0.397   0.412   0.425   0.429   0.423   0.443   0.451   0.447   0.430   0.421   0.415   0.398   0.394   0.379   0.369   0.352
    70.75    0.392   0.392   0.384   0.422   0.433   0.450   0.433   0.408   0.430   0.426   0.428   0.439   0.445   0.467   0.444   0.433   0.402   0.395   0.394   0.414   0.433   0.428   0.450   0.454   0.456   0.461   0.452   0.429   0.430   0.413   0.390   0.375   0.374   0.359   0.363
    66.10    0.400   0.386   0.384   0.389   0.409   0.445   0.428   0.400   0.407   0.407   0.432   0.448   0.463   0.444   0.445   0.438   0.416   0.407   0.406   0.404   0.435   0.437   0.443   0.443   0.464   0.472   0.451   0.426   0.409   0.389   0.376   0.382   0.361   0.376   0.355
    61.45    0.382   0.394   0.381   0.386   0.381   0.415   0.408   0.393   0.383   0.412   0.414   0.423   0.446   0.447   0.450   0.427   0.430   0.438   0.427   0.400   0.415   0.409   0.446   0.437   0.434   0.456   0.439   0.435   0.421   0.386   0.394   0.389   0.362   0.364   0.366
    56.80    0.390   0.379   0.374   0.377   0.374   0.402   0.397   0.399   0.411   0.404   0.408   0.411   0.417   0.442   0.436   0.425   0.448   0.449   0.428   0.430   0.406   0.438   0.450   0.435   0.429   0.446   0.459   0.447   0.414   0.405   0.392   0.383   0.381   0.396   0.380
    52.15    0.405   0.417   0.377   0.369   0.373   0.394   0.419   0.398   0.404   0.406   0.406   0.403   0.408   0.426   0.425   0.440   0.449   0.427   0.414   0.411   0.414   0.421   0.430   0.426   0.429   0.442   0.434   0.435   0.412   0.425   0.417   0.432   0.400   0.402   0.389
    47.50    0.416   0.409   0.399   0.414   0.398   0.412   0.413   0.407   0.410   0.393   0.405   0.401   0.412   0.420   0.439   0.438   0.436   0.419   0.423   0.440   0.421   0.410   0.437   0.451   0.443   0.458   0.460   0.436   0.402   0.420   0.418   0.429   0.418   0.402   0.402
    42.85    0.407   0.414   0.425   0.420   0.397   0.419   0.426   0.411   0.409   0.395   0.412   0.403   0.417   0.418   0.437   0.439   0.440   0.433   0.428   0.437   0.443   0.440   0.423   0.431   0.442   0.447   0.448   0.463   0.431   0.415   0.410   0.410   0.421   0.403   0.398
    38.20    0.393   0.405   0.413   0.404   0.408   0.393   0.420   0.414   0.416   0.414   0.403   0.396   0.412   0.461   0.464   0.440   0.468   0.447   0.441   0.426   0.444   0.425   0.420   0.422   0.406   0.433   0.430   0.454   0.446   0.425   0.430   0.426   0.438   0.428   0.409
    33.55    0.400   0.403   0.401   0.412   0.405   0.381   0.402   0.397   0.402   0.400   0.414   0.408   0.432   0.458   0.483   0.474   0.473   0.461   0.450   0.467   0.445   0.453   0.431   0.424   0.413   0.413   0.441   0.444   0.450   0.454   0.412   0.408   0.403   0.409   0.400
    28.90    0.385   0.396   0.369   0.398   0.386   0.397   0.407   0.404   0.414   0.407   0.417   0.427   0.437   0.476   0.479   0.480   0.467   0.448   0.472   0.454   0.449   0.438   0.442   0.404   0.385   0.403   0.428   0.444   0.425   0.446   0.428   0.428   0.408   0.401   0.368
    24.25    0.409   0.392   0.380   0.373   0.402   0.412   0.393   0.403   0.391   0.400   0.420   0.428   0.447   0.467   0.481   0.474   0.470   0.463   0.470   0.455   0.435   0.427   0.430   0.400   0.383   0.396   0.422   0.408   0.428   0.417   0.411   0.424   0.391   0.397   0.380
    19.60    0.393   0.387   0.378   0.365   0.393   0.380   0.393   0.386   0.400   0.399   0.405   0.414   0.435   0.468   0.452   0.469   0.460   0.457   0.460   0.454   0.427   0.445   0.405   0.393   0.399   0.412   0.417   0.419   0.411   0.421   0.434   0.427   0.409   0.400   0.374
    14.95    0.387   0.363   0.376   0.374   0.392   0.387   0.398   0.386   0.407   0.421   0.417   0.443   0.456   0.453   0.429   0.442   0.454   0.458   0.446   0.458   0.450   0.436   0.418   0.423   0.415   0.427   0.414   0.397   0.407   0.430   0.416   0.424   0.399   0.399   0.393
    10.30    0.399   0.418   0.403   0.397   0.387   0.397   0.396   0.400   0.417   0.429   0.430   0.430   0.446   0.443   0.439   0.419   0.449   0.447   0.449   0.452   0.431   0.438   0.439   0.425   0.444   0.430   0.408   0.393   0.410   0.414   0.421   0.424   0.423   0.408   0.405
     5.65    0.411   0.421   0.415   0.434   0.429   0.421   0.416   0.405   0.404   0.418   0.428   0.420   0.404   0.414   0.431   0.441   0.438   0.451   0.440   0.441   0.424   0.434   0.433   0.420   0.422   0.403   0.405   0.400   0.394   0.414   0.395   0.403   0.403   0.411   0.392
     1.00    0.404   0.418   0.429   0.446   0.425   0.413   0.399   0.397   0.390   0.410   0.412   0.406   0.420   0.395   0.394   0.387   0.421   0.439   0.445   0.451   0.418   0.441   0.456   0.455   0.432   0.394   0.397   0.378   0.375   0.375   0.383   0.367   0.381   0.388   0.400

   Height   Standard deviation at grid points for the v component:
   168.40    0.306   0.293   0.300   0.288   0.297   0.292   0.292   0.279   0.280   0.284   0.291   0.286   0.282   0.282   0.296   0.287   0.286   0.271   0.272   0.281   0.260   0.281   0.276   0.284   0.287   0.289   0.279   0.273   0.276   0.257   0.266   0.268   0.259   0.263   0.283
   163.75    0.310   0.294   0.298   0.296   0.291   0.284   0.277   0.286   0.284   0.286   0.300   0.282   0.283   0.281   0.285   0.289   0.299   0.287   0.283   0.286   0.281   0.287   0.288   0.299   0.296   0.292   0.277   0.265   0.280   0.279   0.280   0.267   0.267   0.271   0.275
   159.10    0.295   0.292   0.289   0.290   0.294   0.285   0.289   0.278   0.275   0.280   0.287   0.273   0.287   0.284   0.299   0.299   0.300   0.287   0.289   0.281   0.291   0.287   0.289   0.293   0.296   0.285   0.293   0.278   0.283   0.265   0.268   0.258   0.250   0.262   0.276
   154.45    0.284   0.292   0.300   0.298   0.287   0.294   0.285   0.273   0.269   0.280   0.270   0.276   0.292   0.300   0.308   0.293   0.292   0.290   0.290   0.289   0.289   0.292   0.298   0.289   0.287   0.292   0.298   0.285   0.279   0.283   0.272   0.257   0.253   0.264   0.262
   149.80    0.284   0.295   0.287   0.301   0.295   0.290   0.265   0.273   0.276   0.268   0.267   0.291   0.301   0.306   0.302   0.287   0.296   0.294   0.292   0.290   0.284   0.286   0.280   0.300   0.277   0.275   0.305   0.297   0.281   0.279   0.276   0.265   0.267   0.261   0.269
   145.15    0.281   0.287   0.289   0.295   0.297   0.286   0.271   0.274   0.276   0.261   0.275   0.288   0.294   0.301   0.316   0.303   0.311   0.304   0.296   0.302   0.295   0.288   0.285   0.284   0.298   0.300   0.308   0.304   0.284   0.275   0.275   0.278   0.282   0.279   0.273
   140.50    0.286   0.272   0.280   0.293   0.292   0.280   0.277   0.272   0.275   0.283   0.290   0.287   0.293   0.306   0.311   0.316   0.308   0.301   0.297   0.301   0.298   0.298   0.308   0.289   0.291   0.291   0.309   0.292   0.291   0.286   0.273   0.266   0.279   0.278   0.276
   135.85    0.287   0.287   0.299   0.302   0.292   0.285   0.284   0.271   0.275   0.268   0.281   0.280   0.296   0.307   0.324   0.315   0.307   0.309   0.311   0.302   0.318   0.305   0.290   0.297   0.292   0.310   0.302   0.288   0.296   0.287   0.286   0.272   0.274   0.263   0.265
   131.20    0.273   0.290   0.282   0.288   0.289   0.281   0.282   0.273   0.297   0.283   0.288   0.295   0.295   0.310   0.320   0.314   0.299   0.304   0.304   0.301   0.311   0.297   0.304   0.292   0.290   0.308   0.311   0.305   0.299   0.286   0.278   0.270   0.282   0.265   0.265
   126.55    0.281   0.282   0.277   0.290   0.300   0.282   0.285   0.294   0.285   0.288   0.292   0.295   0.304   0.314   0.304   0.297   0.289   0.314   0.310   0.335   0.325   0.321   0.320   0.308   0.296   0.302   0.315   0.294   0.294   0.288   0.284   0.269   0.263   0.255   0.271
   121.90    0.282   0.290   0.288   0.307   0.302   0.291   0.289   0.286   0.280   0.286   0.290   0.279   0.289   0.308   0.302   0.284   0.292   0.312   0.316   0.324   0.303   0.307   0.305   0.313   0.312   0.295   0.287   0.298   0.291   0.286   0.271   0.253   0.247   0.248   0.260
   117.25    0.286   0.293   0.298   0.300   0.304   0.287   0.285   0.288   0.276   0.275   0.291   0.286   0.288   0.305   0.284   0.291   0.294   0.302   0.298   0.287   0.292   0.315   0.321   0.301   0.312   0.293   0.285   0.289   0.276   0.282   0.279   0.264   0.256   0.244   0.256
   112.60    0.308   0.310   0.299   0.295   0.298   0.297   0.285   0.294   0.286   0.293   0.287   0.305   0.305   0.295   0.307   0.292   0.296   0.299   0.277   0.274   0.278   0.296   0.307   0.301   0.284   0.295   0.274   0.276   0.271   0.269   0.278   0.282   0.256   0.255   0.256
   107.95    0.294   0.307   0.298   0.292   0.297   0.311   0.305   0.293   0.276   0.283   0.295   0.303   0.307   0.296   0.295   0.298   0.294   0.282   0.289   0.283   0.270   0.285   0.285   0.286   0.291   0.280   0.261   0.275   0.271   0.282   0.280   0.277   0.273   0.251   0.263
   103.30    0.287   0.286   0.287   0.283   0.299   0.302   0.311   0.293   0.285   0.288   0.297   0.299   0.312   0.303   0.298   0.300   0.305   0.310   0.300   0.288   0.288   0.289   0.282   0.277   0.276   0.269   0.264   0.255   0.269   0.272   0.284   0.282   0.264   0.269   0.268
    98.65    0.279   0.277   0.298   0.279   0.280   0.295   0.301   0.303   0.289   0.298   0.299   0.294   0.297   0.290   0.311   0.301   0.312   0.300   0.285   0.296   0.292   0.287   0.279   0.269   0.265   0.260   0.264   0.265   0.280   0.280   0.291   0.276   0.267   0.278   0.265
    94.00    0.280   0.290   0.287   0.296   0.279   0.296   0.306   0.315   0.305   0.310   0.300   0.298   0.310   0.294   0.295   0.313   0.308   0.294   0.292   0.277   0.277   0.275   0.275   0.257   0.260   0.264   0.285   0.278   0.280   0.274   0.285   0.276   0.259   0.267   0.270
    89.35    0.296   0.300   0.289   0.285   0.291   0.283   0.300   0.301   0.302   0.312   0.305   0.314   0.315   0.292   0.280   0.296   0.284   0.288   0.285   0.283   0.283   0.277   0.267   0.251   0.260   0.261   0.276   0.277   0.281   0.285   0.273   0.267   0.276   0.270   0.264
    84.70    0.298   0.292   0.304   0.297   0.279   0.290   0.297   0.295   0.303   0.313   0.306   0.317   0.317   0.312   0.293   0.294   0.300   0.295   0.297   0.288   0.293   0.285   0.264   0.247   0.256   0.253   0.258   0.270   0.277   0.284   0.274   0.272   0.279   0.266   0.263
    80.05    0.289   0.295   0.295   0.291   0.281   0.280   0.297   0.306   0.304   0.312   0.311   0.313   0.313   0.308   0.307   0.304   0.296   0.307   0.289   0.289   0.280   0.277   0.269   0.266   0.266   0.262   0.254   0.263   0.272   0.262   0.261   0.269   0.275   0.270   0.257
    75.40    0.293   0.301   0.292   0.296   0.285   0.283   0.306   0.304   0.306   0.310   0.320   0.326   0.313   0.298   0.300   0.309   0.295   0.313   0.282   0.285   0.283   0.286   0.275   0.266   0.268   0.264   0.264   0.261   0.265   0.265   0.256   0.251   0.251   0.264   0.273
    70.75    0.289   0.286   0.290   0.292   0.291   0.282   0.296   0.308   0.303   0.324   0.331   0.331   0.310   0.302   0.299   0.297   0.309   0.306   0.292   0.272   0.285   0.282   0.281   0.277   0.264   0.274   0.267   0.259   0.251   0.251   0.256   0.252   0.255   0.277   0.290
    66.10    0.269   0.274   0.285   0.293   0.293   0.287   0.297   0.295   0.307   0.318   0.323   0.322   0.321   0.321   0.306   0.310   0.320   0.293   0.294   0.284   0.285   0.287   0.290   0.277   0.268   0.268   0.266   0.273   0.269   0.256   0.256   0.264   0.264   0.288   0.293
    61.45    0.289   0.269   0.285   0.287   0.284   0.289   0.305   0.307   0.291   0.304   0.309   0.313   0.312   0.321   0.322   0.321   0.318   0.295   0.302   0.283   0.282   0.287   0.292   0.287   0.265   0.262   0.283   0.272   0.275   0.276   0.260   0.255   0.274   0.285   0.299
    56.80    0.275   0.280   0.287   0.288   0.296   0.296   0.303   0.321   0.316   0.315   0.304   0.321   0.312   0.316   0.327   0.341   0.327   0.310   0.295   0.298   0.283   0.280   0.283   0.284   0.260   0.266   0.266   0.274   0.276   0.293   0.279   0.259   0.284   0.281   0.287
    52.15    0.278   0.280   0.273   0.297   0.303   0.288   0.305   0.304   0.323   0.331   0.324   0.321   0.323   0.344   0.316   0.328   0.321   0.323   0.297   0.293   0.296   0.272   0.267   0.269   0.267   0.270   0.263   0.268   0.271   0.274   0.284   0.285   0.286   0.294   0.291
    47.50    0.291   0.284   0.279   0.283   0.284   0.297   0.302   0.302   0.305   0.327   0.320   0.322   0.329   0.340   0.330   0.311   0.318   0.312   0.309   0.303   0.296   0.280   0.283   0.275   0.278   0.275   0.275   0.259   0.268   0.267   0.283   0.301   0.303   0.306   0.296
    42.85    0.290   0.292   0.284   0.273   0.284   0.294   0.300   0.305   0.310   0.322   0.326   0.333   0.340   0.322   0.343   0.331   0.316   0.313   0.302   0.296   0.281   0.279   0.273   0.279   0.269   0.270   0.260   0.270   0.261   0.269   0.272   0.277   0.297   0.287   0.288
    38.20    0.310   0.287   0.295   0.289   0.280   0.281   0.286   0.299   0.317   0.330   0.336   0.352   0.328   0.339   0.341   0.360   0.325   0.313   0.310   0.292   0.289   0.296   0.272   0.274   0.271   0.277   0.294   0.278   0.278   0.271   0.275   0.277   0.285   0.272   0.275
    33.55    0.302   0.303   0.291   0.276   0.283   0.274   0.298   0.293   0.305   0.315   0.332   0.330   0.322   0.343   0.338   0.331   0.318   0.306   0.310   0.296   0.285   0.284   0.281   0.259   0.276   0.281   0.269   0.286   0.275   0.280   0.281   0.274   0.277   0.279   0.284
    28.90    0.305   0.291   0.282   0.284   0.289   0.268   0.279   0.301   0.305   0.324   0.328   0.318   0.318   0.342   0.334   0.316   0.307   0.303   0.301   0.288   0.279   0.267   0.268   0.263   0.275   0.279   0.288   0.267   0.274   0.277   0.284   0.288   0.285   0.288   0.284
    24.25    0.307   0.290   0.282   0.289   0.283   0.273   0.283   0.282   0.307   0.324   0.328   0.307   0.313   0.331   0.326   0.331   0.305   0.282   0.289   0.284   0.271   0.274   0.273   0.271   0.280   0.291   0.279   0.251   0.257   0.280   0.291   0.280   0.287   0.297   0.293
    19.60    0.314   0.311   0.284   0.286   0.290   0.284   0.276   0.291   0.291   0.313   0.310   0.310   0.317   0.328   0.322   0.328   0.291   0.286   0.279   0.279   0.268   0.264   0.280   0.280   0.287   0.283   0.274   0.245   0.264   0.275   0.280   0.288   0.301   0.303   0.305
    14.95    0.318   0.311   0.305   0.296   0.288   0.299   0.294   0.294   0.293   0.310   0.321   0.303   0.313   0.307   0.323   0.316   0.305   0.275   0.269   0.272   0.265   0.270   0.279   0.285   0.275   0.279   0.269   0.265   0.271   0.278   0.281   0.279   0.281   0.302   0.287
    10.30    0.323   0.310   0.298   0.303   0.312   0.293   0.292   0.280   0.291   0.290   0.301   0.288   0.288   0.292   0.309   0.308   0.313   0.294   0.288   0.271   0.253   0.260   0.263   0.259   0.276   0.275   0.282   0.274   0.276   0.272   0.276   0.281   0.284   0.277   0.290
     5.65    0.312   0.313   0.307   0.305   0.298   0.277   0.278   0.284   0.290   0.292   0.291   0.280   0.269   0.285   0.300   0.309   0.308   0.292   0.293   0.271   0.258   0.260   0.268   0.262   0.280   0.268   0.282   0.292   0.276   0.266   0.291   0.287   0.272   0.274   0.276
     1.00    0.308   0.316   0.324   0.301   0.293   0.285   0.281   0.289   0.292   0.311   0.300   0.295   0.272   0.294   0.282   0.294   0.297   0.297   0.285   0.265   0.273   0.269   0.278   0.276   0.269   0.274   0.276   0.279   0.286   0.293   0.293   0.273   0.281   0.269   0.263

   Height   Standard deviation at grid points for the w component:
   168.40    0.195   0.197   0.200   0.187   0.193   0.188   0.191   0.191   0.184   0.182   0.186   0.186   0.183   0.182   0.183   0.189   0.198   0.206   0.198   0.194   0.193   0.186   0.190   0.180   0.180   0.181   0.179   0.183   0.179   0.189   0.186   0.185   0.185   0.183   0.187
   163.75    0.188   0.200   0.198   0.188   0.186   0.190   0.192   0.191   0.192   0.186   0.187   0.188   0.186   0.190   0.185   0.197   0.197   0.195   0.200   0.194   0.190   0.187   0.180   0.181   0.181   0.180   0.180   0.181   0.187   0.191   0.183   0.184   0.185   0.185   0.191
   159.10    0.192   0.194   0.199   0.193   0.196   0.196   0.194   0.191   0.199   0.196   0.188   0.192   0.199   0.185   0.192   0.190   0.188   0.189   0.193   0.191   0.188   0.184   0.178   0.179   0.181   0.176   0.180   0.183   0.188   0.193   0.179   0.184   0.183   0.185   0.191
   154.45    0.194   0.199   0.193   0.192   0.198   0.194   0.191   0.193   0.197   0.194   0.193   0.193   0.198   0.191   0.193   0.187   0.185   0.181   0.190   0.183   0.183   0.180   0.181   0.179   0.178   0.185   0.187   0.183   0.186   0.184   0.181   0.180   0.189   0.188   0.183
   149.80    0.197   0.199   0.192   0.193   0.199   0.199   0.187   0.190   0.180   0.191   0.189   0.188   0.193   0.191   0.181   0.187   0.189   0.185   0.181   0.184   0.174   0.184   0.178   0.184   0.187   0.185   0.186   0.184   0.190   0.182   0.180   0.187   0.178   0.195   0.187
   145.15    0.196   0.200   0.195   0.191   0.194   0.193   0.194   0.190   0.182   0.192   0.189   0.187   0.190   0.191   0.179   0.180   0.182   0.183   0.179   0.185   0.182   0.193   0.196   0.185   0.186   0.182   0.182   0.190   0.182   0.189   0.185   0.191   0.182   0.183   0.186
   140.50    0.200   0.194   0.192   0.189   0.186   0.197   0.193   0.182   0.193   0.199   0.192   0.187   0.185   0.188   0.186   0.187   0.184   0.186   0.181   0.189   0.186   0.187   0.191   0.188   0.185   0.184   0.184   0.190   0.190   0.185   0.189   0.193   0.188   0.187   0.186
   135.85    0.190   0.188   0.192   0.193   0.192   0.194   0.193   0.192   0.197   0.197   0.194   0.195   0.190   0.191   0.179   0.188   0.186   0.191   0.187   0.187   0.183   0.188   0.191   0.187   0.184   0.179   0.178   0.181   0.190   0.190   0.195   0.191   0.197   0.186   0.192
   131.20    0.186   0.182   0.187   0.190   0.191   0.193   0.195   0.195   0.196   0.193   0.191   0.190   0.186   0.187   0.183   0.196   0.189   0.193   0.195   0.197   0.189   0.192   0.185   0.182   0.182   0.175   0.174   0.180   0.181   0.183   0.188   0.195   0.195   0.185   0.192
   126.55    0.183   0.183   0.178   0.183   0.191   0.189   0.192   0.201   0.195   0.197   0.196   0.199   0.190   0.194   0.196   0.191   0.196   0.196   0.192   0.186   0.184   0.190   0.190   0.184   0.179   0.179   0.181   0.181   0.174   0.183   0.183   0.192   0.183   0.188   0.189
   121.90    0.185   0.179   0.177   0.169   0.178   0.182   0.189   0.191   0.193   0.194   0.195   0.192   0.191   0.193   0.197   0.197   0.202   0.200   0.195   0.189   0.181   0.179   0.182   0.185   0.182   0.179   0.177   0.184   0.177   0.181   0.185   0.187   0.188   0.183   0.192
   117.25    0.180   0.178   0.174   0.170   0.170   0.180   0.192   0.190   0.198   0.198   0.195   0.187   0.188   0.187   0.186   0.191   0.193   0.203   0.197   0.199   0.184   0.182   0.183   0.188   0.184   0.179   0.181   0.177   0.176   0.174   0.185   0.188   0.188   0.192   0.196
   112.60    0.180   0.175   0.172   0.176   0.178   0.180   0.193   0.194   0.197   0.201   0.193   0.196   0.193   0.194   0.197   0.186   0.195   0.192   0.195   0.196   0.198   0.189   0.185   0.191   0.187   0.183   0.182   0.177   0.180   0.181   0.185   0.189   0.195   0.194   0.194
   107.95    0.181   0.182   0.176   0.182   0.175   0.183   0.189   0.195   0.190   0.194   0.198   0.198   0.194   0.193   0.192   0.187   0.194   0.198   0.191   0.200   0.198   0.194   0.189   0.183   0.190   0.191   0.182   0.182   0.188   0.180   0.188   0.192   0.194   0.194   0.197
   103.30    0.186   0.186   0.186   0.182   0.185   0.184   0.190   0.187   0.188   0.195   0.196   0.195   0.190   0.198   0.188   0.194   0.191   0.187   0.189   0.189   0.194   0.195   0.194   0.185   0.192   0.187   0.184   0.183   0.188   0.186   0.186   0.188   0.198   0.202   0.198
    98.65    0.188   0.183   0.187   0.187   0.183   0.184   0.194   0.195   0.201   0.201   0.192   0.193   0.194   0.193   0.189   0.194   0.195   0.187   0.183   0.178   0.188   0.191   0.190   0.197   0.190   0.190   0.189   0.194   0.192   0.192   0.187   0.178   0.191   0.200   0.194
    94.00    0.191   0.189   0.189   0.185   0.185   0.192   0.192   0.198   0.198   0.194   0.188   0.187   0.191   0.194   0.193   0.183   0.191   0.194   0.190   0.174   0.180   0.184   0.183   0.191   0.187   0.192   0.192   0.192   0.189   0.185   0.190   0.185   0.186   0.192   0.195
    89.35    0.187   0.183   0.185   0.175   0.183   0.176   0.184   0.190   0.189   0.187   0.181   0.186   0.190   0.185   0.195   0.194   0.194   0.199   0.187   0.179   0.183   0.191   0.184   0.188   0.189   0.181   0.181   0.191   0.190   0.184   0.190   0.190   0.187   0.190   0.197
    84.70    0.179   0.182   0.180   0.175   0.180   0.179   0.187   0.190   0.188   0.186   0.178   0.183   0.189   0.189   0.193   0.189   0.193   0.205   0.192   0.190   0.182   0.187   0.178   0.183   0.183   0.182   0.186   0.194   0.188   0.186   0.193   0.193   0.193   0.188   0.193
    80.05    0.181   0.178   0.175   0.177   0.176   0.178   0.194   0.192   0.185   0.183   0.181   0.188   0.187   0.186   0.187   0.185   0.193   0.194   0.193   0.195   0.190   0.185   0.170   0.171   0.178   0.179   0.174   0.185   0.189   0.188   0.188   0.197   0.198   0.190   0.188
    75.40    0.185   0.178   0.176   0.173   0.183   0.190   0.191   0.191   0.183   0.179   0.184   0.186   0.182   0.180   0.187   0.189   0.184   0.196   0.193   0.195   0.190   0.185   0.179   0.186   0.184   0.177   0.174   0.177   0.183   0.190   0.192   0.186   0.186   0.183   0.194
    70.75    0.190   0.188   0.190   0.178   0.181   0.187   0.192   0.188   0.184   0.185   0.189   0.189   0.188   0.187   0.185   0.185   0.182   0.183   0.185   0.184   0.190   0.187   0.189   0.188   0.183   0.175   0.178   0.178   0.187   0.191   0.188   0.181   0.183   0.188   0.190
    66.10    0.184   0.186   0.182   0.180   0.186   0.185   0.190   0.190   0.192   0.186   0.192   0.196   0.195   0.188   0.187   0.181   0.182   0.185   0.182   0.179   0.184   0.188   0.186   0.190   0.176   0.178   0.187   0.184   0.188   0.186   0.188   0.183   0.178   0.188   0.193
    61.45    0.181   0.187   0.186   0.188   0.184   0.189   0.185   0.188   0.188   0.188   0.184   0.191   0.192   0.195   0.188   0.186   0.186   0.187   0.188   0.184   0.182   0.183   0.186   0.183   0.179   0.180   0.185   0.181   0.185   0.185   0.185   0.188   0.187   0.188   0.186
    56.80    0.180   0.184   0.190   0.190   0.188   0.188   0.190   0.186   0.181   0.186   0.188   0.192   0.192   0.202   0.189   0.190   0.183   0.182   0.188   0.178   0.183   0.188   0.188   0.181   0.187   0.177   0.181   0.184   0.189   0.190   0.187   0.187   0.182   0.197   0.188
    52.15    0.179   0.181   0.188   0.191   0.191   0.188   0.188   0.188   0.189   0.195   0.187   0.188   0.188   0.188   0.188   0.189   0.189   0.195   0.192   0.188   0.196   0.194   0.196   0.189   0.185   0.174   0.179   0.185   0.188   0.191   0.188   0.185   0.191   0.186   0.196
    47.50    0.184   0.192   0.188   0.190   0.192   0.187   0.185   0.191   0.194   0.198   0.196   0.193   0.200   0.199   0.207   0.190   0.196   0.193   0.197   0.199   0.194   0.188   0.188   0.186   0.187   0.179   0.184   0.186   0.191   0.188   0.186   0.188   0.187   0.190   0.192
    42.85    0.183   0.188   0.184   0.197   0.195   0.196   0.192   0.192   0.192   0.196   0.195   0.193   0.204   0.200   0.201   0.202   0.196   0.197   0.194   0.196   0.189   0.189   0.181   0.186   0.181   0.185   0.183   0.184   0.186   0.199   0.199   0.188   0.189   0.190   0.186
    38.20    0.184   0.183   0.194   0.193   0.199   0.206   0.197   0.191   0.193   0.201   0.204   0.203   0.204   0.204   0.207   0.202   0.202   0.203   0.200   0.198   0.191   0.189   0.195   0.186   0.185   0.184   0.184   0.188   0.191   0.195   0.199   0.194   0.194   0.191   0.182
    33.55    0.183   0.183   0.196   0.195   0.199   0.202   0.197   0.188   0.188   0.193   0.198   0.207   0.203   0.207   0.199   0.203   0.198   0.195   0.197   0.202   0.196   0.189   0.192   0.188   0.187   0.179   0.187   0.196   0.205   0.208   0.212   0.205   0.213   0.195   0.183
    28.90    0.184   0.186   0.193   0.192   0.194   0.199   0.204   0.189   0.194   0.196   0.199   0.198   0.202   0.202   0.204   0.208   0.204   0.201   0.198   0.200   0.196   0.195   0.196   0.188   0.177   0.187   0.191   0.190   0.201   0.212   0.211   0.208   0.204   0.205   0.192
    24.25    0.186   0.184   0.188   0.193   0.194   0.191   0.195   0.187   0.193   0.192   0.198   0.200   0.205   0.203   0.201   0.211   0.206   0.199   0.202   0.198   0.198   0.189   0.190   0.187   0.190   0.193   0.186   0.188   0.196   0.207   0.216   0.207   0.200   0.197   0.193
    19.60    0.187   0.194   0.201   0.195   0.187   0.189   0.189   0.192   0.197   0.196   0.199   0.202   0.197   0.205   0.207   0.211   0.206   0.196   0.194   0.200   0.192   0.185   0.185   0.196   0.193   0.199   0.200   0.198   0.194   0.204   0.208   0.211   0.211   0.190   0.189
    14.95    0.188   0.188   0.204   0.201   0.188   0.189   0.187   0.195   0.205   0.199   0.209   0.198   0.206   0.207   0.203   0.202   0.203   0.192   0.194   0.194   0.198   0.190   0.191   0.196   0.194   0.210   0.212   0.217   0.206   0.215   0.211   0.211   0.212   0.198   0.193
    10.30    0.186   0.181   0.199   0.197   0.189   0.195   0.196   0.193   0.202   0.203   0.204   0.197   0.201   0.201   0.198   0.196   0.199   0.201   0.192   0.191   0.199   0.197   0.197   0.200   0.192   0.201   0.205   0.210   0.207   0.214   0.217   0.222   0.205   0.197   0.200
     5.65    0.186   0.188   0.194   0.193   0.186   0.188   0.187   0.191   0.198   0.197   0.199   0.199   0.201   0.198   0.192   0.200   0.206   0.209   0.197   0.193   0.195   0.189   0.187   0.194   0.203   0.201   0.200   0.200   0.204   0.198   0.201   0.206   0.202   0.211   0.203
     1.00    0.191   0.192   0.191   0.189   0.190   0.187   0.182   0.198   0.196   0.200   0.193   0.199   0.203   0.195   0.192   0.196   0.202   0.203   0.190   0.184   0.183   0.184   0.188   0.191   0.192   0.199   0.194   0.199   0.199   0.202   0.202   0.200   0.199   0.202   0.189

   Mean standard deviation across all grid points:
      u component:    0.398 m/s
      v component:    0.289 m/s
      w component:    0.190 m/s


U-component (X) statistics from the interpolated hub point:

   Mean =   9.9913 m/s
   TI   =   3.6151 %


Processing complete.  5934.2 CPU seconds used.
