
This summary file was generated by TurbSim (from OpenFAST-v3.5.3) on 19-Apr-2025 at 20:50:41.


Runtime Options:

**********  Random seed #1
    RANLUX  Type of random number generator
         F  Output binary HH turbulence parameters?
         F  Output formatted turbulence parameters?
         F  Output AeroDyn HH files?
         T  Output AeroDyn FF files?
         F  Output BLADED FF files?
         F  Output tower data?
         F  Output HAWC FF files?
         F  Output formatted FF files?
         T  Output coherent turbulence time step file?
 0 -  NONE  IEC turbulence models scaled to exact specified standard deviation


Turbine/Model Specifications:

        39  Vertical grid-point matrix dimension
       193  Horizontal grid-point matrix dimension
     0.250  Time step [seconds]
   900.000  Analysis time [seconds]
   900.000  Usable output time [seconds]
   177.700  Hub height [m]
   353.400  Grid height [m]
  1785.600  Grid width [m]
     0.000  Vertical flow angle [degrees]
     0.000  Horizontal flow angle [degrees]


Meteorological Boundary Conditions:

    IECKAI  IEC Kaimal spectral model
         1  IEC standard: IEC 61400-1 Ed. 3: 2005
     7.500  Percent turbulence intensity, IEC 61400-1 Ed. 3: 2005
       NTM  IEC Normal Turbulence Model
       N/A  IEC Extreme Turbulence Model (ETM) "c" parameter [m/s]
       USR  Wind profile type
    90.000  Reference height [m]
       N/A  Reference wind speed [m/s]
       N/A  Jet height [m]
       N/A  Power law exponent
     0.030  Surface roughness length [m]


Non-IEC Meteorological Boundary Conditions:

       N/A  Site latitude [degrees]
       N/A  Gradient Richardson number
       N/A  Friction or shear velocity [m/s]
       N/A  Mixing layer depth [m]
       N/A  Mean hub u'w' Reynolds stress
       N/A  Mean hub u'v' Reynolds stress
       N/A  Mean hub v'w' Reynolds stress


Spatial Coherence Models:

       IEC  u-component coherence model
       IEC  v-component coherence model
       IEC  w-component coherence model
(   12.000, 0.353E-03)  u-component coherence parameters
(   12.000, 0.353E-03)  v-component coherence parameters
(   12.000, 0.353E-03)  w-component coherence parameters
       N/A  Coherence exponent


User-Defined Profiles:

  Height   Wind Speed   Horizontal Angle
   (m)        (m/s)          (deg)      
  ------   ----------   ----------------
  353.40      10.00         318.19
  334.80      10.00         321.14
  316.20      10.00         324.10
  297.60      10.00         327.05
  279.00      10.00         330.00
  260.40      10.00         332.95
  241.80      10.00         335.90
  223.20      10.00         338.86
  204.60      10.00         341.81
  186.00      10.00         344.76
  167.40      10.00         347.71
  148.80      10.00         350.67
  130.20      10.00         353.62
  111.60      10.00         356.57
   93.00      10.00         359.52
   74.40      10.00           2.48
   55.80      10.00           5.43
   37.20      10.00           8.38
   18.60      10.00          11.33
    0.00      10.00          14.29


You have requested that the following file(s) be generated:

   /kfs3/scratch/agupta/Projects/RL_Incubator/FinalRuns_Veer/Seed4/./FFSim_Seed4/Cond00_v10.0_PL0.12_TI7.5/Seed_2/Low.bts (AeroDyn/TurbSim full-field wind file)


Turbulence Simulation Scaling Parameter Summary:

   Turbulence model used                            =  IEC Kaimal
   Turbulence characteristic                        =  User-specified
   IEC standard                                     =  IEC 61400-1 Ed. 3: 2005
   Mean wind speed at hub height                    =   10.000 m/s
   Characteristic value of standard deviation       =    0.750 m/s
   Turbulence scale                                 =   42.000 m
   u-component integral scale                       =  340.200 m
   Coherency scale                                  =  340.200 m
   Characteristic value of hub turbulence intensity =    7.500%
   Gradient Richardson number                       =    0.000

   Wind profile type                                =  Linear interpolation of user-defined profile
   Equivalent power law exponent (upper rotor disk) =    0.000
   Mean shear across rotor disk                     =    0.000 (m/s)/m
   Assumed rotor diameter                           =  353.400 m
   Surface roughness length                         =    0.030 m

   Nyquist frequency of turbulent wind field        =    2.000 Hz

   Number of time steps in the FFT                  =     3600
   Number of time steps output                      =     3600
   Number of points simulated                       =     7527


Mean Flow Angles:

   Vertical   =   0.0 degrees
   Horizontal =   0.0 degrees

Mean Wind Speed Profile:

   Height    Wind Speed   Horizontal Angle  Vertical Angle  U-comp (X)   V-comp (Y)   W-comp (Z)
     (m)        (m/s)         (degrees)       (degrees)       (m/s)        (m/s)        (m/s)   
   ------    ----------   ----------------  --------------  ----------   ----------   ----------
    354.4       10.00          318.19            0.00          7.45        -6.67         0.00
    345.1       10.00          319.51            0.00          7.60        -6.49         0.00
    335.8       10.00          320.98            0.00          7.77        -6.30         0.00
    326.5       10.00          322.46            0.00          7.93        -6.09         0.00
    317.2       10.00          323.94            0.00          8.08        -5.89         0.00
    307.9       10.00          325.41            0.00          8.23        -5.68         0.00
    298.6       10.00          326.89            0.00          8.38        -5.46         0.00
    289.3       10.00          328.37            0.00          8.51        -5.25         0.00
    280.0       10.00          329.84            0.00          8.65        -5.02         0.00
    270.7       10.00          331.32            0.00          8.77        -4.80         0.00
    261.4       10.00          332.79            0.00          8.89        -4.57         0.00
    252.1       10.00          334.27            0.00          9.01        -4.34         0.00
    242.8       10.00          335.75            0.00          9.12        -4.11         0.00
    233.5       10.00          337.22            0.00          9.22        -3.87         0.00
    224.2       10.00          338.70            0.00          9.32        -3.63         0.00
    214.9       10.00          340.17            0.00          9.41        -3.39         0.00
    205.6       10.00          341.65            0.00          9.49        -3.15         0.00
    196.3       10.00          343.13            0.00          9.57        -2.90         0.00
    187.0       10.00          344.60            0.00          9.64        -2.66         0.00
    177.7       10.00          346.08            0.00          9.71        -2.41         0.00
    168.4       10.00          347.56            0.00          9.77        -2.15         0.00
    159.1       10.00          349.03            0.00          9.82        -1.90         0.00
    149.8       10.00          350.51            0.00          9.86        -1.65         0.00
    140.5       10.00          351.98            0.00          9.90        -1.39         0.00
    131.2       10.00          353.46            0.00          9.93        -1.14         0.00
    121.9       10.00          354.94            0.00          9.96        -0.88         0.00
    112.6       10.00          356.41            0.00          9.98        -0.63         0.00
    103.3       10.00          357.89            0.00          9.99        -0.37         0.00
     94.0       10.00          359.37            0.00         10.00        -0.11         0.00
     84.7       10.00          360.84            0.00         10.00         0.15         0.00
     75.4       10.00          362.32            0.00          9.99         0.40         0.00
     66.1       10.00            3.79            0.00          9.98         0.66         0.00
     56.8       10.00            5.27            0.00          9.96         0.92         0.00
     47.5       10.00            6.75            0.00          9.93         1.17         0.00
     38.2       10.00            8.22            0.00          9.90         1.43         0.00
     28.9       10.00            9.70            0.00          9.86         1.68         0.00
     19.6       10.00           11.17            0.00          9.81         1.94         0.00
     10.3       10.00           12.65            0.00          9.76         2.19         0.00
      1.0       10.00           14.13            0.00          9.70         2.44         0.00


Harvested Random Seeds after Generation of the Random Numbers:

    377667225 K 1
            0 K 2


Hub-Height Simulated Turbulence Statistical Summary:

   Type of Wind        Min (m/s)   Mean (m/s)    Max (m/s)  Sigma (m/s)       TI (%)
   ----------------    ---------   ----------    ---------  -----------       ------
   Longitudinal (u)         7.90        10.00        12.26        0.759        7.587
   Lateral (v)             -1.81         0.00         2.07        0.584        5.844
   Vertical (w)            -1.52        -0.00         1.33        0.370        3.695
   U component              7.63         9.71        11.95        0.743        7.656
   V component             -4.42        -2.41        -0.48        0.604        6.224
   W component             -1.52        -0.00         1.33        0.370        3.807
   Horizontal (U&V)         7.90        10.02        12.26        0.760        7.591
   Total                    7.90        10.02        12.26        0.759        7.573

                       Min Reynolds     Mean Reynolds    Max Reynolds    Correlation
   Product             Stress (m/s)^2   Stress (m/s)^2   Stress (m/s)^2  Coefficient
   ----------------    --------------   --------------   --------------  -----------
   u'w'                     -1.867            -0.000             1.894        -0.001
   u'v'                     -3.090            -0.021             1.909        -0.047
   v'w'                     -1.754            -0.012             1.237        -0.058


   Friction Velocity (Ustar)  =      0.017 m/s
   Maximum Instantaneous TKE  =      3.381 (m/s)^2
   Maximum Instantaneous CTKE =      1.767 (m/s)^2


Grid Point Variance Summary:

   Y-coord -892.80 -883.50 -874.20 -864.90 -855.60 -846.30 -837.00 -827.70 -818.40 -809.10 -799.80 -790.50 -781.20 -771.90 -762.60 -753.30 -744.00 -734.70 -725.40 -716.10 -706.80 -697.50 -688.20 -678.90 -669.60 -660.30 -651.00 -641.70 -632.40 -623.10 -613.80 -604.50 -595.20 -585.90 -576.60 -567.30 -558.00 -548.70 -539.40 -530.10 -520.80 -511.50 -502.20 -492.90 -483.60 -474.30 -465.00 -455.70 -446.40 -437.10 -427.80 -418.50 -409.20 -399.90 -390.60 -381.30 -372.00 -362.70 -353.40 -344.10 -334.80 -325.50 -316.20 -306.90 -297.60 -288.30 -279.00 -269.70 -260.40 -251.10 -241.80 -232.50 -223.20 -213.90 -204.60 -195.30 -186.00 -176.70 -167.40 -158.10 -148.80 -139.50 -130.20 -120.90 -111.60 -102.30  -93.00  -83.70  -74.40  -65.10  -55.80  -46.50  -37.20  -27.90  -18.60   -9.30    0.00    9.30   18.60   27.90   37.20   46.50   55.80   65.10   74.40   83.70   93.00  102.30  111.60  120.90  130.20  139.50  148.80  158.10  167.40  176.70  186.00  195.30  204.60  213.90  223.20  232.50  241.80  251.10  260.40  269.70  279.00  288.30  297.60  306.90  316.20  325.50  334.80  344.10  353.40  362.70  372.00  381.30  390.60  399.90  409.20  418.50  427.80  437.10  446.40  455.70  465.00  474.30  483.60  492.90  502.20  511.50  520.80  530.10  539.40  548.70  558.00  567.30  576.60  585.90  595.20  604.50  613.80  623.10  632.40  641.70  651.00  660.30  669.60  678.90  688.20  697.50  706.80  716.10  725.40  734.70  744.00  753.30  762.60  771.90  781.20  790.50  799.80  809.10  818.40  827.70  837.00  846.30  855.60  864.90  874.20  883.50  892.80

   Height   Standard deviation at grid points for the u component:
   354.40    0.762   0.725   0.739   0.782   0.830   0.814   0.826   0.788   0.792   0.849   0.808   0.849   0.824   0.820   0.770   0.751   0.804   0.791   0.795   0.764   0.769   0.762   0.734   0.718   0.710   0.715   0.712   0.695   0.719   0.714   0.667   0.690   0.745   0.733   0.739   0.735   0.777   0.739   0.778   0.807   0.765   0.735   0.781   0.782   0.776   0.793   0.711   0.748   0.843   0.767   0.763   0.803   0.798   0.835   0.785   0.803   0.791   0.781   0.785   0.765   0.768   0.799   0.829   0.829   0.874   0.852   0.913   0.893   0.901   0.899   0.919   0.942   0.887   0.899   0.889   0.872   0.857   0.865   0.868   0.872   0.855   0.814   0.731   0.676   0.737   0.782   0.810   0.796   0.841   0.831   0.800   0.827   0.821   0.897   0.987   0.921   0.924   0.919   0.886   0.858   0.863   0.832   0.814   0.847   0.812   0.791   0.792   0.808   0.773   0.811   0.784   0.721   0.643   0.638   0.671   0.666   0.703   0.653   0.679   0.699   0.674   0.632   0.645   0.663   0.683   0.676   0.669   0.679   0.691   0.715   0.668   0.619   0.639   0.619   0.669   0.678   0.661   0.665   0.606   0.642   0.681   0.685   0.679   0.680   0.688   0.709   0.717   0.729   0.678   0.615   0.635   0.651   0.577   0.624   0.678   0.705   0.671   0.664   0.662   0.725   0.806   0.787   0.813   0.791   0.773   0.728   0.706   0.614   0.612   0.636   0.690   0.681   0.679   0.713   0.690   0.703   0.685   0.636   0.622   0.676   0.679   0.742   0.777   0.828   0.737   0.713   0.672   0.649   0.659   0.612   0.608   0.644   0.627
   345.10    0.747   0.741   0.770   0.788   0.808   0.840   0.848   0.831   0.820   0.835   0.852   0.846   0.863   0.780   0.760   0.799   0.828   0.834   0.845   0.838   0.834   0.822   0.765   0.757   0.746   0.717   0.718   0.690   0.680   0.666   0.635   0.682   0.729   0.689   0.725   0.724   0.779   0.750   0.779   0.765   0.758   0.718   0.787   0.762   0.739   0.737   0.742   0.783   0.831   0.792   0.794   0.809   0.874   0.815   0.849   0.781   0.744   0.751   0.788   0.781   0.793   0.744   0.782   0.914   0.883   0.842   0.897   0.845   0.905   0.953   0.934   0.900   0.914   0.869   0.826   0.770   0.765   0.818   0.815   0.799   0.763   0.783   0.741   0.734   0.729   0.732   0.775   0.815   0.868   0.797   0.764   0.821   0.826   0.899   0.958   0.961   0.890   0.876   0.882   0.884   0.851   0.822   0.857   0.813   0.863   0.834   0.822   0.826   0.801   0.818   0.781   0.793   0.674   0.678   0.680   0.660   0.652   0.643   0.629   0.655   0.640   0.639   0.625   0.679   0.689   0.716   0.700   0.710   0.699   0.689   0.685   0.675   0.698   0.720   0.747   0.666   0.700   0.680   0.611   0.641   0.656   0.688   0.651   0.643   0.703   0.705   0.718   0.681   0.642   0.628   0.645   0.657   0.609   0.607   0.678   0.679   0.691   0.687   0.708   0.712   0.783   0.826   0.801   0.781   0.743   0.724   0.655   0.634   0.613   0.619   0.629   0.653   0.685   0.700   0.700   0.706   0.705   0.706   0.697   0.715   0.741   0.731   0.733   0.705   0.730   0.699   0.668   0.669   0.694   0.644   0.656   0.664   0.658
   335.80    0.745   0.787   0.794   0.801   0.807   0.849   0.866   0.874   0.855   0.818   0.841   0.838   0.813   0.861   0.815   0.829   0.868   0.895   0.911   0.864   0.840   0.893   0.828   0.775   0.743   0.758   0.722   0.661   0.720   0.704   0.706   0.712   0.718   0.689   0.713   0.714   0.737   0.745   0.741   0.828   0.736   0.735   0.747   0.775   0.756   0.745   0.775   0.790   0.799   0.784   0.811   0.842   0.803   0.867   0.875   0.784   0.764   0.780   0.807   0.830   0.781   0.775   0.815   0.895   0.921   0.880   0.877   0.844   0.892   0.861   0.885   0.904   0.883   0.839   0.797   0.756   0.734   0.716   0.786   0.800   0.799   0.801   0.763   0.747   0.754   0.788   0.816   0.819   0.790   0.859   0.794   0.806   0.830   0.868   0.896   0.885   0.914   0.873   0.847   0.897   0.944   0.858   0.803   0.870   0.878   0.797   0.845   0.796   0.774   0.783   0.763   0.738   0.716   0.689   0.635   0.622   0.639   0.667   0.625   0.630   0.583   0.643   0.661   0.703   0.657   0.727   0.689   0.713   0.707   0.722   0.727   0.730   0.757   0.738   0.747   0.664   0.660   0.697   0.633   0.610   0.627   0.668   0.619   0.632   0.641   0.647   0.621   0.636   0.661   0.649   0.660   0.678   0.625   0.650   0.670   0.704   0.689   0.708   0.731   0.764   0.792   0.810   0.835   0.796   0.783   0.723   0.684   0.669   0.653   0.663   0.638   0.664   0.646   0.689   0.696   0.691   0.686   0.688   0.691   0.646   0.695   0.739   0.671   0.701   0.673   0.662   0.673   0.677   0.665   0.649   0.715   0.670   0.651
   326.50    0.714   0.770   0.772   0.826   0.843   0.828   0.906   0.880   0.883   0.839   0.855   0.798   0.810   0.825   0.847   0.847   0.855   0.871   0.891   0.883   0.841   0.837   0.851   0.755   0.802   0.751   0.766   0.743   0.716   0.699   0.718   0.721   0.752   0.679   0.716   0.688   0.693   0.719   0.737   0.774   0.758   0.749   0.761   0.801   0.750   0.729   0.763   0.794   0.806   0.784   0.810   0.850   0.807   0.849   0.826   0.764   0.762   0.767   0.761   0.763   0.777   0.722   0.779   0.816   0.919   0.935   0.923   0.876   0.872   0.900   0.910   0.843   0.836   0.839   0.806   0.756   0.730   0.709   0.794   0.743   0.783   0.774   0.745   0.736   0.761   0.764   0.760   0.756   0.826   0.809   0.823   0.853   0.850   0.841   0.902   0.927   0.940   0.958   0.914   0.923   0.911   0.847   0.862   0.931   0.898   0.813   0.827   0.790   0.754   0.735   0.661   0.716   0.721   0.661   0.601   0.612   0.619   0.659   0.636   0.609   0.608   0.623   0.632   0.621   0.594   0.695   0.715   0.678   0.733   0.756   0.770   0.712   0.756   0.757   0.730   0.658   0.670   0.646   0.604   0.633   0.630   0.646   0.662   0.644   0.638   0.605   0.596   0.624   0.697   0.661   0.645   0.640   0.632   0.645   0.706   0.722   0.769   0.764   0.776   0.788   0.789   0.816   0.844   0.803   0.747   0.718   0.666   0.671   0.679   0.657   0.663   0.673   0.681   0.645   0.653   0.644   0.625   0.672   0.660   0.704   0.709   0.681   0.647   0.670   0.637   0.675   0.684   0.662   0.665   0.674   0.681   0.677   0.653
   317.20    0.716   0.751   0.798   0.843   0.864   0.849   0.890   0.891   0.840   0.805   0.797   0.803   0.804   0.872   0.844   0.839   0.809   0.804   0.796   0.789   0.868   0.828   0.788   0.769   0.746   0.801   0.801   0.752   0.733   0.759   0.728   0.667   0.694   0.700   0.672   0.677   0.703   0.734   0.748   0.727   0.754   0.808   0.782   0.763   0.739   0.720   0.760   0.771   0.793   0.800   0.798   0.807   0.833   0.814   0.804   0.795   0.739   0.766   0.783   0.701   0.739   0.725   0.728   0.805   0.861   0.914   0.880   0.858   0.899   0.910   0.914   0.880   0.808   0.795   0.765   0.726   0.721   0.778   0.779   0.754   0.747   0.738   0.716   0.717   0.711   0.708   0.655   0.724   0.777   0.774   0.744   0.768   0.813   0.875   0.871   0.923   0.919   0.964   0.950   0.937   0.885   0.855   0.908   0.917   0.903   0.796   0.777   0.732   0.755   0.744   0.717   0.703   0.688   0.669   0.643   0.630   0.596   0.624   0.607   0.591   0.621   0.601   0.627   0.593   0.633   0.654   0.689   0.701   0.723   0.727   0.717   0.738   0.689   0.700   0.723   0.717   0.669   0.609   0.620   0.612   0.664   0.678   0.637   0.629   0.619   0.657   0.629   0.654   0.704   0.732   0.671   0.672   0.620   0.663   0.692   0.708   0.719   0.750   0.808   0.811   0.787   0.796   0.814   0.793   0.743   0.715   0.651   0.624   0.658   0.679   0.706   0.709   0.710   0.654   0.611   0.607   0.625   0.652   0.614   0.686   0.700   0.690   0.639   0.621   0.629   0.639   0.673   0.729   0.673   0.685   0.665   0.708   0.731
   307.90    0.772   0.748   0.801   0.825   0.846   0.825   0.826   0.838   0.852   0.827   0.857   0.882   0.842   0.898   0.841   0.822   0.810   0.796   0.765   0.780   0.829   0.784   0.738   0.736   0.802   0.806   0.783   0.754   0.747   0.746   0.716   0.733   0.713   0.705   0.684   0.725   0.714   0.736   0.742   0.748   0.771   0.811   0.767   0.768   0.761   0.747   0.777   0.734   0.771   0.730   0.748   0.777   0.823   0.819   0.774   0.755   0.680   0.741   0.770   0.703   0.708   0.705   0.735   0.797   0.868   0.849   0.814   0.859   0.867   0.846   0.892   0.903   0.846   0.816   0.777   0.696   0.684   0.753   0.807   0.804   0.761   0.734   0.714   0.727   0.652   0.675   0.637   0.674   0.694   0.761   0.743   0.745   0.770   0.833   0.848   0.882   0.881   0.974   0.995   0.938   0.919   0.900   0.902   0.885   0.917   0.841   0.788   0.769   0.778   0.738   0.720   0.660   0.672   0.661   0.674   0.654   0.622   0.638   0.619   0.636   0.618   0.615   0.603   0.583   0.630   0.645   0.658   0.706   0.737   0.729   0.711   0.727   0.658   0.675   0.694   0.698   0.679   0.684   0.641   0.647   0.600   0.620   0.659   0.654   0.644   0.614   0.602   0.635   0.675   0.677   0.636   0.643   0.641   0.677   0.708   0.693   0.706   0.732   0.742   0.761   0.779   0.817   0.855   0.825   0.771   0.680   0.655   0.655   0.667   0.687   0.712   0.682   0.665   0.643   0.602   0.643   0.623   0.639   0.615   0.648   0.661   0.676   0.697   0.667   0.632   0.637   0.627   0.623   0.650   0.652   0.639   0.705   0.714
   298.60    0.737   0.777   0.718   0.772   0.792   0.742   0.811   0.831   0.886   0.877   0.817   0.867   0.867   0.862   0.873   0.833   0.849   0.855   0.815   0.817   0.828   0.782   0.751   0.735   0.803   0.791   0.746   0.764   0.728   0.676   0.680   0.738   0.737   0.705   0.684   0.731   0.731   0.710   0.718   0.752   0.753   0.725   0.742   0.749   0.668   0.675   0.692   0.691   0.720   0.686   0.702   0.735   0.769   0.744   0.787   0.762   0.728   0.731   0.737   0.760   0.695   0.688   0.647   0.738   0.766   0.818   0.792   0.854   0.841   0.863   0.867   0.836   0.827   0.802   0.713   0.713   0.700   0.725   0.789   0.815   0.820   0.782   0.742   0.687   0.638   0.609   0.620   0.617   0.659   0.702   0.797   0.756   0.771   0.855   0.853   0.870   0.908   0.944   0.993   0.933   0.917   0.874   0.887   0.868   0.824   0.841   0.817   0.716   0.716   0.727   0.746   0.742   0.686   0.727   0.694   0.680   0.683   0.637   0.641   0.635   0.622   0.629   0.619   0.648   0.638   0.648   0.673   0.685   0.737   0.777   0.731   0.720   0.659   0.649   0.672   0.781   0.765   0.684   0.693   0.626   0.633   0.646   0.636   0.667   0.641   0.645   0.617   0.671   0.680   0.686   0.660   0.626   0.645   0.684   0.676   0.703   0.689   0.696   0.728   0.766   0.746   0.765   0.821   0.794   0.732   0.711   0.705   0.640   0.663   0.639   0.676   0.716   0.686   0.646   0.643   0.676   0.634   0.626   0.635   0.631   0.658   0.707   0.713   0.696   0.626   0.614   0.633   0.600   0.594   0.629   0.638   0.715   0.724
   289.30    0.717   0.716   0.753   0.737   0.751   0.728   0.783   0.801   0.847   0.811   0.821   0.780   0.814   0.845   0.819   0.851   0.866   0.856   0.863   0.816   0.747   0.807   0.790   0.779   0.804   0.816   0.778   0.732   0.684   0.681   0.637   0.720   0.731   0.732   0.689   0.696   0.708   0.694   0.699   0.707   0.741   0.762   0.741   0.676   0.655   0.692   0.701   0.653   0.658   0.671   0.663   0.744   0.718   0.683   0.726   0.766   0.751   0.747   0.708   0.774   0.736   0.712   0.705   0.754   0.799   0.758   0.818   0.788   0.793   0.800   0.831   0.855   0.847   0.804   0.773   0.695   0.711   0.745   0.769   0.790   0.803   0.765   0.736   0.688   0.619   0.597   0.631   0.601   0.694   0.734   0.768   0.783   0.826   0.838   0.820   0.879   0.906   0.900   0.936   0.892   0.884   0.846   0.779   0.776   0.774   0.800   0.767   0.724   0.716   0.723   0.718   0.718   0.726   0.702   0.618   0.628   0.677   0.660   0.624   0.619   0.615   0.677   0.675   0.630   0.652   0.680   0.708   0.696   0.699   0.710   0.712   0.726   0.739   0.750   0.754   0.770   0.716   0.691   0.674   0.668   0.687   0.727   0.664   0.643   0.656   0.647   0.625   0.659   0.669   0.663   0.639   0.628   0.627   0.657   0.688   0.676   0.735   0.714   0.735   0.769   0.793   0.792   0.776   0.721   0.693   0.667   0.686   0.686   0.695   0.660   0.715   0.728   0.728   0.712   0.745   0.682   0.606   0.648   0.637   0.640   0.667   0.720   0.685   0.671   0.637   0.603   0.628   0.582   0.611   0.636   0.638   0.660   0.704
   280.00    0.730   0.764   0.756   0.732   0.676   0.712   0.766   0.764   0.801   0.807   0.834   0.828   0.826   0.822   0.777   0.813   0.793   0.792   0.819   0.795   0.826   0.841   0.820   0.807   0.818   0.787   0.772   0.728   0.679   0.645   0.639   0.662   0.717   0.632   0.660   0.700   0.658   0.696   0.643   0.680   0.700   0.718   0.705   0.696   0.713   0.644   0.662   0.645   0.635   0.654   0.722   0.732   0.741   0.708   0.721   0.723   0.760   0.712   0.727   0.731   0.739   0.754   0.744   0.749   0.738   0.719   0.742   0.733   0.741   0.792   0.814   0.819   0.771   0.746   0.747   0.684   0.689   0.745   0.781   0.738   0.714   0.674   0.667   0.615   0.613   0.607   0.626   0.622   0.692   0.726   0.753   0.721   0.771   0.843   0.888   0.919   0.926   0.893   0.905   0.851   0.848   0.865   0.807   0.740   0.792   0.772   0.723   0.730   0.748   0.746   0.742   0.710   0.719   0.651   0.632   0.587   0.648   0.653   0.625   0.638   0.656   0.638   0.640   0.632   0.685   0.714   0.687   0.689   0.717   0.704   0.738   0.776   0.776   0.726   0.759   0.796   0.723   0.702   0.651   0.694   0.713   0.738   0.710   0.628   0.629   0.626   0.624   0.652   0.677   0.659   0.654   0.651   0.666   0.650   0.628   0.671   0.674   0.755   0.729   0.786   0.793   0.784   0.752   0.689   0.706   0.700   0.683   0.700   0.673   0.706   0.706   0.710   0.763   0.728   0.703   0.699   0.637   0.662   0.672   0.650   0.691   0.657   0.672   0.697   0.727   0.654   0.609   0.637   0.652   0.635   0.629   0.680   0.678
   270.70    0.666   0.712   0.757   0.733   0.737   0.780   0.747   0.772   0.828   0.817   0.846   0.787   0.861   0.781   0.748   0.786   0.823   0.797   0.795   0.826   0.770   0.782   0.794   0.844   0.817   0.840   0.798   0.775   0.667   0.683   0.657   0.676   0.639   0.622   0.644   0.673   0.688   0.709   0.658   0.674   0.656   0.708   0.686   0.685   0.722   0.656   0.650   0.638   0.646   0.687   0.754   0.722   0.715   0.659   0.707   0.749   0.750   0.714   0.694   0.700   0.675   0.697   0.705   0.731   0.725   0.667   0.656   0.720   0.734   0.759   0.760   0.737   0.758   0.757   0.775   0.748   0.731   0.774   0.742   0.750   0.766   0.707   0.676   0.641   0.615   0.622   0.626   0.656   0.709   0.736   0.740   0.771   0.775   0.841   0.907   0.909   0.890   0.840   0.882   0.894   0.833   0.815   0.800   0.729   0.735   0.750   0.778   0.756   0.754   0.690   0.673   0.739   0.704   0.676   0.659   0.609   0.637   0.635   0.644   0.625   0.630   0.623   0.633   0.661   0.691   0.739   0.701   0.721   0.690   0.670   0.732   0.766   0.742   0.764   0.781   0.761   0.794   0.751   0.702   0.724   0.719   0.703   0.622   0.621   0.633   0.648   0.671   0.696   0.621   0.669   0.629   0.596   0.611   0.621   0.644   0.627   0.681   0.756   0.756   0.781   0.781   0.721   0.709   0.710   0.700   0.690   0.721   0.724   0.712   0.700   0.698   0.687   0.741   0.727   0.742   0.701   0.680   0.679   0.689   0.683   0.737   0.744   0.699   0.698   0.726   0.687   0.669   0.693   0.725   0.673   0.665   0.657   0.666
   261.40    0.747   0.716   0.731   0.726   0.724   0.768   0.762   0.740   0.757   0.793   0.788   0.803   0.825   0.763   0.789   0.771   0.770   0.806   0.825   0.782   0.731   0.750   0.760   0.799   0.818   0.794   0.746   0.735   0.718   0.690   0.687   0.649   0.599   0.625   0.612   0.681   0.684   0.666   0.651   0.649   0.692   0.641   0.666   0.723   0.736   0.656   0.694   0.638   0.642   0.658   0.714   0.694   0.660   0.665   0.652   0.733   0.775   0.753   0.716   0.668   0.619   0.680   0.694   0.702   0.688   0.641   0.702   0.723   0.697   0.714   0.703   0.689   0.677   0.702   0.766   0.816   0.759   0.748   0.767   0.728   0.793   0.668   0.627   0.624   0.627   0.656   0.645   0.703   0.746   0.800   0.739   0.779   0.775   0.825   0.911   0.953   0.892   0.895   0.897   0.860   0.847   0.798   0.796   0.719   0.716   0.722   0.773   0.704   0.719   0.708   0.746   0.737   0.770   0.720   0.697   0.633   0.642   0.602   0.586   0.596   0.602   0.610   0.651   0.658   0.645   0.689   0.658   0.679   0.742   0.721   0.723   0.719   0.676   0.701   0.761   0.778   0.762   0.790   0.729   0.707   0.740   0.728   0.664   0.621   0.621   0.621   0.629   0.658   0.625   0.621   0.597   0.580   0.611   0.626   0.626   0.626   0.706   0.749   0.738   0.706   0.765   0.722   0.702   0.711   0.677   0.639   0.702   0.745   0.733   0.722   0.716   0.729   0.660   0.673   0.693   0.710   0.681   0.676   0.676   0.707   0.744   0.785   0.696   0.723   0.749   0.684   0.700   0.687   0.722   0.716   0.656   0.649   0.662
   252.10    0.708   0.688   0.710   0.703   0.728   0.726   0.735   0.707   0.757   0.752   0.737   0.728   0.711   0.734   0.765   0.777   0.763   0.745   0.774   0.791   0.790   0.727   0.769   0.787   0.765   0.745   0.721   0.703   0.702   0.659   0.667   0.637   0.607   0.659   0.626   0.660   0.649   0.629   0.624   0.676   0.654   0.655   0.678   0.718   0.680   0.668   0.652   0.594   0.585   0.604   0.629   0.697   0.703   0.714   0.712   0.725   0.747   0.786   0.691   0.638   0.677   0.670   0.646   0.703   0.677   0.695   0.705   0.714   0.687   0.692   0.675   0.672   0.667   0.698   0.804   0.783   0.792   0.812   0.779   0.767   0.770   0.707   0.657   0.648   0.631   0.646   0.672   0.698   0.742   0.782   0.747   0.774   0.793   0.807   0.877   0.919   0.924   0.919   0.871   0.870   0.801   0.766   0.781   0.820   0.707   0.730   0.737   0.713   0.704   0.727   0.731   0.700   0.758   0.692   0.727   0.692   0.643   0.605   0.611   0.614   0.613   0.587   0.638   0.615   0.669   0.683   0.703   0.656   0.677   0.677   0.691   0.684   0.718   0.739   0.774   0.766   0.758   0.745   0.694   0.708   0.697   0.684   0.683   0.636   0.652   0.620   0.623   0.621   0.595   0.582   0.592   0.572   0.564   0.626   0.636   0.642   0.669   0.713   0.732   0.731   0.751   0.692   0.735   0.702   0.699   0.687   0.775   0.769   0.739   0.709   0.771   0.751   0.700   0.637   0.611   0.677   0.691   0.696   0.686   0.741   0.755   0.769   0.746   0.756   0.707   0.716   0.699   0.692   0.707   0.648   0.646   0.658   0.637
   242.80    0.710   0.710   0.681   0.689   0.739   0.732   0.706   0.721   0.740   0.763   0.727   0.673   0.701   0.696   0.706   0.741   0.714   0.699   0.701   0.741   0.768   0.747   0.771   0.763   0.764   0.728   0.729   0.713   0.691   0.656   0.696   0.687   0.634   0.647   0.621   0.668   0.701   0.643   0.661   0.681   0.681   0.668   0.725   0.703   0.676   0.661   0.595   0.589   0.585   0.579   0.650   0.713   0.694   0.698   0.718   0.764   0.749   0.807   0.745   0.729   0.673   0.675   0.641   0.666   0.684   0.722   0.682   0.719   0.668   0.687   0.677   0.662   0.661   0.730   0.805   0.805   0.800   0.844   0.797   0.799   0.727   0.678   0.678   0.674   0.643   0.636   0.647   0.681   0.733   0.752   0.718   0.743   0.774   0.792   0.843   0.909   0.889   0.843   0.850   0.784   0.755   0.765   0.779   0.786   0.780   0.690   0.736   0.713   0.725   0.750   0.763   0.704   0.725   0.686   0.750   0.682   0.632   0.626   0.624   0.654   0.673   0.717   0.606   0.638   0.620   0.639   0.687   0.676   0.643   0.648   0.683   0.704   0.733   0.712   0.747   0.792   0.761   0.749   0.716   0.695   0.697   0.687   0.678   0.607   0.625   0.572   0.595   0.586   0.619   0.608   0.575   0.560   0.616   0.629   0.608   0.608   0.622   0.657   0.679   0.739   0.719   0.709   0.738   0.711   0.657   0.696   0.756   0.789   0.780   0.805   0.777   0.770   0.667   0.660   0.666   0.666   0.663   0.654   0.694   0.735   0.771   0.739   0.703   0.716   0.714   0.686   0.682   0.674   0.660   0.624   0.636   0.670   0.643
   233.50    0.737   0.710   0.694   0.732   0.697   0.777   0.714   0.763   0.787   0.761   0.740   0.697   0.705   0.696   0.730   0.707   0.719   0.690   0.678   0.707   0.775   0.795   0.765   0.744   0.732   0.735   0.737   0.724   0.731   0.679   0.709   0.692   0.627   0.598   0.643   0.668   0.739   0.675   0.658   0.646   0.676   0.691   0.732   0.654   0.585   0.600   0.594   0.600   0.621   0.624   0.684   0.699   0.678   0.745   0.739   0.756   0.750   0.765   0.835   0.798   0.734   0.672   0.671   0.622   0.644   0.691   0.700   0.732   0.708   0.683   0.685   0.670   0.723   0.750   0.787   0.801   0.806   0.788   0.805   0.814   0.717   0.726   0.670   0.673   0.676   0.625   0.641   0.674   0.718   0.710   0.776   0.757   0.752   0.763   0.836   0.862   0.887   0.862   0.804   0.767   0.751   0.762   0.818   0.859   0.782   0.717   0.765   0.793   0.783   0.782   0.797   0.780   0.795   0.757   0.745   0.752   0.741   0.664   0.600   0.686   0.705   0.724   0.674   0.676   0.631   0.635   0.651   0.648   0.685   0.679   0.692   0.742   0.730   0.734   0.756   0.772   0.713   0.692   0.686   0.712   0.724   0.733   0.697   0.632   0.601   0.605   0.582   0.623   0.557   0.597   0.618   0.594   0.609   0.627   0.612   0.644   0.665   0.699   0.643   0.663   0.660   0.714   0.723   0.702   0.654   0.725   0.759   0.741   0.748   0.791   0.778   0.731   0.647   0.659   0.646   0.647   0.634   0.665   0.720   0.708   0.728   0.738   0.709   0.675   0.687   0.689   0.671   0.659   0.724   0.691   0.674   0.702   0.727
   224.20    0.776   0.786   0.791   0.743   0.728   0.744   0.723   0.702   0.770   0.753   0.742   0.706   0.645   0.672   0.679   0.668   0.725   0.694   0.685   0.774   0.765   0.821   0.802   0.781   0.761   0.774   0.783   0.756   0.805   0.729   0.689   0.698   0.645   0.645   0.626   0.683   0.731   0.691   0.658   0.645   0.680   0.683   0.713   0.633   0.623   0.615   0.642   0.632   0.581   0.635   0.660   0.680   0.720   0.713   0.772   0.780   0.791   0.808   0.810   0.811   0.768   0.716   0.646   0.638   0.632   0.695   0.662   0.685   0.682   0.731   0.679   0.658   0.669   0.738   0.792   0.791   0.773   0.752   0.727   0.726   0.713   0.667   0.672   0.662   0.659   0.651   0.677   0.662   0.757   0.733   0.739   0.751   0.734   0.796   0.821   0.835   0.862   0.876   0.811   0.790   0.759   0.804   0.848   0.863   0.758   0.785   0.754   0.768   0.801   0.867   0.772   0.786   0.832   0.892   0.818   0.782   0.748   0.668   0.625   0.701   0.676   0.669   0.653   0.664   0.660   0.647   0.676   0.674   0.705   0.732   0.761   0.696   0.698   0.726   0.766   0.752   0.752   0.695   0.670   0.714   0.721   0.716   0.676   0.657   0.600   0.584   0.580   0.625   0.652   0.615   0.599   0.606   0.580   0.584   0.630   0.663   0.725   0.702   0.669   0.673   0.687   0.641   0.641   0.696   0.722   0.748   0.727   0.745   0.739   0.771   0.776   0.717   0.706   0.702   0.685   0.706   0.683   0.687   0.669   0.650   0.677   0.710   0.648   0.686   0.644   0.689   0.683   0.666   0.681   0.706   0.710   0.721   0.724
   214.90    0.840   0.880   0.905   0.815   0.755   0.741   0.724   0.692   0.735   0.730   0.720   0.677   0.666   0.671   0.642   0.664   0.685   0.725   0.754   0.760   0.830   0.799   0.820   0.837   0.794   0.782   0.779   0.726   0.734   0.739   0.685   0.685   0.681   0.629   0.608   0.664   0.677   0.669   0.631   0.609   0.650   0.665   0.671   0.701   0.678   0.665   0.640   0.613   0.582   0.642   0.669   0.660   0.675   0.703   0.748   0.765   0.764   0.803   0.844   0.786   0.794   0.709   0.630   0.632   0.624   0.659   0.670   0.635   0.682   0.718   0.672   0.688   0.666   0.713   0.767   0.716   0.715   0.747   0.676   0.675   0.689   0.682   0.695   0.688   0.659   0.650   0.724   0.754   0.751   0.719   0.719   0.755   0.794   0.840   0.878   0.799   0.815   0.863   0.798   0.755   0.775   0.811   0.828   0.843   0.833   0.740   0.797   0.760   0.785   0.862   0.826   0.809   0.857   0.915   0.842   0.763   0.740   0.732   0.725   0.722   0.703   0.664   0.655   0.610   0.655   0.695   0.683   0.696   0.718   0.722   0.747   0.767   0.740   0.754   0.720   0.724   0.705   0.683   0.703   0.727   0.723   0.720   0.707   0.627   0.596   0.562   0.645   0.655   0.624   0.625   0.639   0.666   0.669   0.699   0.683   0.697   0.736   0.737   0.747   0.684   0.642   0.676   0.667   0.706   0.782   0.744   0.754   0.781   0.767   0.751   0.763   0.733   0.775   0.740   0.726   0.745   0.706   0.684   0.657   0.672   0.659   0.677   0.668   0.653   0.681   0.690   0.708   0.727   0.734   0.714   0.712   0.664   0.675
   205.60    0.926   0.899   0.935   0.898   0.828   0.788   0.762   0.739   0.745   0.772   0.750   0.702   0.715   0.695   0.646   0.635   0.652   0.672   0.707   0.732   0.793   0.786   0.828   0.833   0.804   0.821   0.786   0.727   0.711   0.708   0.697   0.677   0.713   0.651   0.624   0.640   0.657   0.621   0.609   0.624   0.650   0.670   0.659   0.739   0.742   0.717   0.657   0.592   0.621   0.640   0.628   0.639   0.669   0.647   0.732   0.793   0.798   0.832   0.824   0.766   0.741   0.737   0.698   0.670   0.666   0.622   0.625   0.688   0.668   0.671   0.672   0.668   0.720   0.726   0.751   0.739   0.681   0.740   0.696   0.690   0.676   0.690   0.692   0.617   0.620   0.658   0.725   0.738   0.763   0.732   0.738   0.783   0.834   0.836   0.887   0.852   0.867   0.831   0.801   0.767   0.852   0.878   0.871   0.843   0.834   0.807   0.801   0.813   0.833   0.874   0.818   0.853   0.885   0.917   0.818   0.845   0.821   0.792   0.805   0.782   0.708   0.699   0.649   0.626   0.699   0.708   0.659   0.701   0.786   0.724   0.709   0.742   0.770   0.729   0.726   0.685   0.716   0.722   0.725   0.705   0.725   0.680   0.721   0.638   0.633   0.640   0.622   0.669   0.666   0.656   0.677   0.736   0.724   0.707   0.691   0.785   0.844   0.845   0.758   0.679   0.658   0.696   0.677   0.708   0.740   0.734   0.755   0.781   0.758   0.792   0.804   0.744   0.736   0.771   0.783   0.737   0.687   0.698   0.678   0.680   0.650   0.665   0.615   0.642   0.655   0.682   0.706   0.693   0.700   0.688   0.717   0.701   0.691
   196.30    0.907   0.907   0.891   0.856   0.836   0.844   0.861   0.807   0.802   0.780   0.723   0.695   0.700   0.712   0.629   0.653   0.640   0.692   0.680   0.693   0.789   0.789   0.837   0.795   0.781   0.792   0.793   0.777   0.718   0.732   0.705   0.657   0.678   0.644   0.623   0.637   0.628   0.650   0.622   0.618   0.605   0.677   0.702   0.768   0.712   0.688   0.686   0.657   0.647   0.696   0.667   0.675   0.689   0.668   0.740   0.787   0.779   0.826   0.783   0.736   0.740   0.734   0.677   0.602   0.667   0.663   0.659   0.722   0.687   0.667   0.637   0.645   0.677   0.730   0.770   0.782   0.731   0.706   0.735   0.749   0.699   0.658   0.657   0.672   0.625   0.643   0.678   0.737   0.765   0.736   0.814   0.832   0.873   0.841   0.849   0.858   0.814   0.825   0.837   0.845   0.834   0.836   0.880   0.857   0.852   0.808   0.837   0.864   0.900   0.919   0.889   0.901   0.872   0.856   0.873   0.866   0.793   0.811   0.786   0.794   0.746   0.678   0.645   0.669   0.665   0.678   0.720   0.734   0.721   0.758   0.759   0.730   0.715   0.711   0.753   0.701   0.695   0.757   0.712   0.689   0.722   0.712   0.700   0.678   0.641   0.604   0.640   0.706   0.705   0.672   0.690   0.755   0.725   0.699   0.735   0.763   0.829   0.845   0.770   0.768   0.682   0.685   0.746   0.707   0.714   0.743   0.708   0.713   0.786   0.754   0.815   0.795   0.748   0.736   0.762   0.796   0.754   0.734   0.714   0.728   0.748   0.681   0.681   0.705   0.699   0.718   0.695   0.735   0.706   0.712   0.721   0.728   0.687
   187.00    0.921   0.907   0.922   0.904   0.906   0.845   0.849   0.841   0.828   0.754   0.699   0.692   0.703   0.751   0.690   0.680   0.681   0.672   0.713   0.669   0.772   0.772   0.803   0.761   0.744   0.752   0.727   0.699   0.710   0.679   0.692   0.673   0.691   0.675   0.680   0.682   0.660   0.609   0.639   0.589   0.589   0.647   0.728   0.739   0.783   0.775   0.719   0.690   0.625   0.679   0.653   0.700   0.691   0.715   0.717   0.737   0.756   0.798   0.785   0.741   0.720   0.722   0.706   0.705   0.702   0.705   0.697   0.762   0.756   0.688   0.675   0.662   0.654   0.685   0.693   0.709   0.741   0.734   0.720   0.728   0.680   0.672   0.705   0.657   0.668   0.666   0.679   0.729   0.740   0.765   0.810   0.791   0.841   0.822   0.805   0.801   0.819   0.781   0.824   0.779   0.772   0.798   0.811   0.833   0.856   0.826   0.853   0.877   0.954   0.931   0.954   0.940   0.896   0.876   0.879   0.903   0.802   0.785   0.818   0.785   0.742   0.689   0.693   0.648   0.627   0.664   0.663   0.727   0.746   0.748   0.761   0.765   0.799   0.751   0.735   0.734   0.742   0.743   0.737   0.739   0.759   0.721   0.694   0.661   0.634   0.600   0.690   0.715   0.693   0.688   0.666   0.726   0.738   0.720   0.731   0.769   0.829   0.833   0.803   0.748   0.722   0.715   0.704   0.732   0.709   0.717   0.743   0.756   0.769   0.796   0.818   0.786   0.743   0.765   0.751   0.789   0.771   0.770   0.785   0.781   0.706   0.683   0.695   0.763   0.754   0.725   0.683   0.733   0.712   0.703   0.697   0.712   0.731
   177.70    0.891   0.980   0.910   0.943   0.945   0.850   0.830   0.826   0.804   0.780   0.742   0.726   0.724   0.794   0.700   0.721   0.649   0.687   0.787   0.765   0.745   0.770   0.770   0.726   0.753   0.774   0.717   0.718   0.674   0.686   0.735   0.728   0.685   0.664   0.640   0.682   0.650   0.615   0.615   0.646   0.612   0.639   0.703   0.724   0.779   0.803   0.766   0.684   0.640   0.648   0.645   0.695   0.737   0.727   0.695   0.689   0.718   0.714   0.692   0.710   0.701   0.700   0.710   0.703   0.713   0.684   0.730   0.766   0.713   0.771   0.695   0.691   0.680   0.715   0.675   0.709   0.755   0.760   0.760   0.760   0.685   0.687   0.746   0.704   0.690   0.692   0.703   0.737   0.736   0.767   0.817   0.776   0.729   0.752   0.754   0.746   0.759   0.774   0.764   0.824   0.888   0.831   0.785   0.809   0.771   0.835   0.805   0.888   0.894   0.982   0.959   0.880   0.851   0.873   0.873   0.871   0.858   0.793   0.783   0.727   0.707   0.643   0.624   0.668   0.630   0.708   0.725   0.743   0.769   0.751   0.754   0.769   0.798   0.786   0.779   0.787   0.778   0.714   0.684   0.728   0.719   0.713   0.687   0.648   0.669   0.625   0.649   0.677   0.729   0.692   0.695   0.753   0.814   0.756   0.723   0.743   0.810   0.812   0.814   0.750   0.734   0.684   0.707   0.723   0.691   0.678   0.726   0.685   0.759   0.819   0.771   0.791   0.764   0.735   0.767   0.790   0.835   0.800   0.787   0.745   0.753   0.731   0.761   0.785   0.759   0.735   0.724   0.718   0.749   0.729   0.750   0.696   0.733
   168.40    0.930   0.957   0.932   0.901   0.858   0.852   0.829   0.816   0.791   0.799   0.759   0.741   0.762   0.745   0.734   0.686   0.691   0.700   0.749   0.767   0.797   0.768   0.738   0.700   0.685   0.726   0.698   0.705   0.711   0.716   0.733   0.733   0.703   0.680   0.632   0.621   0.639   0.590   0.649   0.628   0.611   0.609   0.625   0.690   0.736   0.792   0.759   0.721   0.681   0.679   0.710   0.719   0.709   0.701   0.684   0.713   0.701   0.772   0.722   0.734   0.686   0.700   0.745   0.723   0.762   0.694   0.702   0.721   0.738   0.762   0.724   0.717   0.718   0.701   0.721   0.742   0.753   0.773   0.750   0.762   0.734   0.739   0.723   0.724   0.682   0.723   0.717   0.677   0.701   0.704   0.759   0.816   0.760   0.770   0.750   0.703   0.748   0.763   0.771   0.828   0.818   0.796   0.828   0.819   0.848   0.866   0.879   0.895   0.869   0.908   0.946   0.873   0.883   0.864   0.881   0.910   0.888   0.804   0.776   0.755   0.686   0.633   0.616   0.639   0.663   0.705   0.704   0.704   0.730   0.775   0.792   0.819   0.822   0.807   0.813   0.831   0.793   0.758   0.736   0.765   0.689   0.680   0.677   0.694   0.660   0.650   0.650   0.693   0.701   0.708   0.697   0.720   0.714   0.747   0.696   0.742   0.758   0.789   0.807   0.736   0.700   0.671   0.712   0.742   0.710   0.719   0.705   0.694   0.725   0.768   0.751   0.748   0.728   0.726   0.734   0.794   0.836   0.795   0.782   0.718   0.771   0.735   0.738   0.739   0.705   0.749   0.731   0.807   0.784   0.780   0.760   0.703   0.724
   159.10    0.853   0.873   0.820   0.827   0.860   0.833   0.805   0.806   0.782   0.748   0.755   0.773   0.749   0.781   0.769   0.759   0.736   0.711   0.731   0.752   0.711   0.699   0.697   0.659   0.700   0.700   0.718   0.688   0.747   0.751   0.723   0.760   0.694   0.642   0.679   0.631   0.606   0.608   0.628   0.558   0.578   0.604   0.613   0.638   0.710   0.739   0.691   0.737   0.745   0.725   0.727   0.721   0.767   0.749   0.647   0.726   0.731   0.814   0.827   0.751   0.720   0.736   0.708   0.758   0.741   0.758   0.701   0.703   0.734   0.713   0.766   0.726   0.742   0.726   0.771   0.756   0.770   0.763   0.763   0.748   0.744   0.667   0.684   0.663   0.647   0.704   0.746   0.689   0.682   0.693   0.747   0.744   0.811   0.774   0.728   0.684   0.754   0.750   0.802   0.796   0.775   0.830   0.821   0.839   0.879   0.908   0.953   0.907   0.941   0.899   0.866   0.860   0.866   0.864   0.834   0.847   0.845   0.819   0.799   0.712   0.720   0.709   0.644   0.612   0.670   0.723   0.717   0.738   0.723   0.771   0.803   0.760   0.815   0.763   0.795   0.765   0.774   0.767   0.722   0.719   0.720   0.724   0.691   0.678   0.669   0.629   0.682   0.704   0.697   0.636   0.682   0.664   0.667   0.702   0.671   0.692   0.748   0.756   0.721   0.738   0.719   0.713   0.757   0.753   0.721   0.720   0.752   0.697   0.693   0.733   0.765   0.758   0.750   0.701   0.728   0.767   0.783   0.776   0.770   0.737   0.732   0.733   0.718   0.765   0.733   0.760   0.789   0.797   0.769   0.797   0.737   0.732   0.731
   149.80    0.828   0.832   0.812   0.817   0.874   0.846   0.798   0.822   0.835   0.753   0.778   0.754   0.738   0.793   0.747   0.751   0.726   0.736   0.686   0.745   0.737   0.659   0.665   0.667   0.658   0.662   0.663   0.694   0.735   0.771   0.720   0.750   0.694   0.652   0.688   0.649   0.599   0.608   0.593   0.581   0.568   0.549   0.599   0.611   0.667   0.662   0.647   0.730   0.744   0.712   0.745   0.775   0.747   0.704   0.700   0.726   0.763   0.797   0.774   0.724   0.755   0.727   0.711   0.728   0.718   0.734   0.740   0.734   0.702   0.776   0.745   0.765   0.793   0.759   0.744   0.763   0.745   0.726   0.726   0.732   0.715   0.682   0.663   0.688   0.708   0.713   0.645   0.684   0.704   0.747   0.725   0.786   0.784   0.747   0.732   0.700   0.790   0.831   0.793   0.835   0.869   0.842   0.826   0.792   0.837   0.926   0.883   0.903   0.835   0.845   0.848   0.841   0.827   0.864   0.855   0.830   0.852   0.774   0.765   0.698   0.744   0.682   0.631   0.621   0.672   0.699   0.705   0.690   0.722   0.709   0.747   0.763   0.739   0.726   0.692   0.735   0.693   0.702   0.747   0.716   0.718   0.754   0.781   0.744   0.734   0.686   0.718   0.749   0.679   0.696   0.699   0.636   0.670   0.691   0.631   0.698   0.734   0.750   0.696   0.664   0.688   0.706   0.743   0.723   0.693   0.694   0.702   0.721   0.733   0.722   0.729   0.754   0.803   0.726   0.733   0.779   0.783   0.803   0.766   0.712   0.722   0.729   0.756   0.743   0.754   0.765   0.780   0.774   0.747   0.758   0.734   0.751   0.740
   140.50    0.845   0.798   0.788   0.767   0.834   0.839   0.779   0.813   0.804   0.722   0.743   0.756   0.771   0.819   0.758   0.782   0.762   0.760   0.725   0.688   0.687   0.681   0.677   0.626   0.640   0.663   0.669   0.685   0.708   0.774   0.715   0.711   0.692   0.691   0.627   0.624   0.603   0.629   0.611   0.573   0.535   0.544   0.552   0.647   0.659   0.673   0.702   0.729   0.712   0.748   0.736   0.764   0.777   0.720   0.728   0.684   0.720   0.811   0.741   0.746   0.752   0.745   0.760   0.733   0.749   0.768   0.829   0.781   0.797   0.814   0.788   0.777   0.793   0.787   0.736   0.760   0.727   0.714   0.662   0.725   0.699   0.713   0.662   0.702   0.735   0.736   0.666   0.647   0.713   0.711   0.776   0.730   0.728   0.766   0.787   0.749   0.812   0.864   0.786   0.845   0.848   0.817   0.795   0.828   0.872   0.903   0.866   0.872   0.831   0.800   0.800   0.857   0.827   0.874   0.818   0.787   0.778   0.741   0.695   0.669   0.693   0.624   0.617   0.629   0.651   0.662   0.649   0.642   0.670   0.622   0.710   0.714   0.674   0.705   0.700   0.682   0.645   0.668   0.707   0.697   0.706   0.705   0.708   0.742   0.683   0.635   0.701   0.709   0.701   0.656   0.729   0.699   0.679   0.657   0.661   0.686   0.713   0.760   0.706   0.701   0.678   0.722   0.661   0.676   0.632   0.610   0.644   0.673   0.695   0.673   0.773   0.775   0.753   0.728   0.734   0.771   0.772   0.767   0.761   0.741   0.713   0.667   0.708   0.671   0.712   0.793   0.766   0.785   0.775   0.755   0.700   0.699   0.724
   131.20    0.853   0.792   0.859   0.825   0.916   0.858   0.817   0.784   0.812   0.757   0.793   0.762   0.759   0.748   0.748   0.752   0.729   0.728   0.694   0.648   0.643   0.625   0.660   0.637   0.604   0.616   0.624   0.625   0.642   0.693   0.688   0.700   0.679   0.667   0.616   0.577   0.627   0.628   0.568   0.589   0.572   0.589   0.549   0.655   0.683   0.692   0.683   0.689   0.728   0.717   0.713   0.720   0.689   0.679   0.703   0.699   0.698   0.734   0.773   0.775   0.708   0.740   0.700   0.736   0.778   0.764   0.806   0.785   0.836   0.828   0.800   0.823   0.811   0.790   0.755   0.731   0.691   0.694   0.662   0.720   0.734   0.751   0.713   0.697   0.724   0.713   0.685   0.694   0.701   0.730   0.743   0.759   0.709   0.777   0.782   0.774   0.790   0.852   0.841   0.834   0.805   0.823   0.758   0.852   0.840   0.864   0.833   0.862   0.818   0.826   0.856   0.796   0.792   0.823   0.764   0.786   0.770   0.709   0.656   0.633   0.629   0.574   0.620   0.627   0.648   0.656   0.651   0.622   0.633   0.660   0.703   0.716   0.678   0.676   0.652   0.635   0.656   0.669   0.692   0.658   0.683   0.658   0.671   0.729   0.721   0.698   0.678   0.661   0.652   0.699   0.678   0.677   0.610   0.630   0.683   0.701   0.690   0.696   0.670   0.735   0.706   0.727   0.680   0.662   0.604   0.616   0.641   0.632   0.676   0.709   0.732   0.741   0.780   0.764   0.782   0.749   0.773   0.771   0.772   0.762   0.724   0.702   0.700   0.742   0.732   0.749   0.754   0.763   0.767   0.788   0.712   0.689   0.682
   121.90    0.826   0.810   0.820   0.815   0.878   0.858   0.791   0.790   0.786   0.759   0.758   0.807   0.763   0.787   0.780   0.747   0.730   0.681   0.686   0.670   0.679   0.655   0.650   0.646   0.611   0.614   0.606   0.606   0.651   0.689   0.648   0.599   0.667   0.629   0.650   0.620   0.632   0.632   0.603   0.561   0.568   0.558   0.605   0.666   0.675   0.685   0.649   0.704   0.700   0.736   0.701   0.690   0.674   0.672   0.695   0.701   0.721   0.747   0.795   0.760   0.755   0.721   0.668   0.719   0.740   0.769   0.787   0.807   0.772   0.817   0.816   0.834   0.807   0.825   0.769   0.719   0.719   0.675   0.700   0.699   0.747   0.781   0.737   0.710   0.723   0.728   0.717   0.718   0.656   0.713   0.687   0.718   0.712   0.756   0.746   0.825   0.824   0.805   0.828   0.783   0.762   0.794   0.790   0.836   0.836   0.807   0.823   0.836   0.831   0.868   0.840   0.797   0.761   0.813   0.837   0.800   0.764   0.701   0.668   0.676   0.637   0.619   0.620   0.648   0.714   0.652   0.636   0.628   0.660   0.658   0.680   0.716   0.676   0.673   0.696   0.671   0.647   0.634   0.701   0.669   0.695   0.695   0.714   0.748   0.750   0.706   0.690   0.699   0.668   0.668   0.656   0.674   0.620   0.636   0.659   0.712   0.701   0.697   0.691   0.670   0.700   0.659   0.645   0.644   0.623   0.625   0.650   0.665   0.674   0.684   0.773   0.749   0.723   0.760   0.789   0.769   0.796   0.774   0.698   0.731   0.762   0.705   0.696   0.731   0.736   0.708   0.712   0.771   0.776   0.748   0.744   0.719   0.697
   112.60    0.834   0.764   0.800   0.793   0.795   0.797   0.820   0.754   0.750   0.738   0.746   0.748   0.740   0.774   0.751   0.757   0.728   0.721   0.689   0.699   0.711   0.683   0.688   0.633   0.642   0.645   0.606   0.632   0.642   0.665   0.600   0.635   0.649   0.594   0.644   0.601   0.623   0.624   0.608   0.604   0.582   0.601   0.657   0.682   0.687   0.701   0.665   0.678   0.711   0.708   0.700   0.674   0.624   0.660   0.701   0.723   0.772   0.735   0.769   0.781   0.751   0.760   0.761   0.730   0.790   0.851   0.842   0.805   0.804   0.835   0.893   0.871   0.864   0.821   0.789   0.774   0.710   0.704   0.732   0.682   0.746   0.756   0.739   0.723   0.664   0.693   0.693   0.726   0.701   0.709   0.684   0.655   0.695   0.736   0.687   0.773   0.785   0.831   0.858   0.789   0.770   0.773   0.795   0.783   0.790   0.776   0.765   0.784   0.807   0.813   0.788   0.783   0.764   0.792   0.773   0.794   0.786   0.715   0.709   0.709   0.644   0.635   0.628   0.684   0.705   0.681   0.655   0.608   0.608   0.600   0.657   0.667   0.712   0.679   0.677   0.687   0.644   0.645   0.710   0.716   0.720   0.715   0.746   0.703   0.731   0.743   0.740   0.670   0.756   0.738   0.681   0.630   0.627   0.654   0.679   0.727   0.685   0.694   0.649   0.684   0.638   0.659   0.652   0.642   0.621   0.614   0.671   0.698   0.688   0.716   0.732   0.764   0.762   0.792   0.839   0.761   0.771   0.727   0.672   0.673   0.728   0.688   0.719   0.725   0.716   0.676   0.697   0.698   0.726   0.725   0.686   0.707   0.665
   103.30    0.849   0.811   0.789   0.766   0.795   0.831   0.805   0.763   0.763   0.743   0.722   0.772   0.785   0.797   0.746   0.750   0.747   0.706   0.709   0.729   0.743   0.738   0.703   0.700   0.677   0.635   0.641   0.621   0.622   0.652   0.621   0.614   0.618   0.633   0.632   0.617   0.589   0.630   0.639   0.699   0.611   0.649   0.667   0.718   0.708   0.737   0.720   0.655   0.665   0.667   0.668   0.630   0.645   0.677   0.725   0.678   0.728   0.764   0.803   0.778   0.765   0.726   0.799   0.805   0.821   0.841   0.846   0.789   0.824   0.867   0.902   0.865   0.822   0.813   0.739   0.730   0.700   0.690   0.679   0.634   0.733   0.787   0.730   0.691   0.655   0.679   0.705   0.681   0.681   0.660   0.669   0.635   0.638   0.709   0.694   0.821   0.817   0.843   0.869   0.853   0.801   0.813   0.790   0.785   0.805   0.793   0.783   0.762   0.815   0.782   0.791   0.740   0.751   0.739   0.796   0.787   0.816   0.745   0.673   0.679   0.669   0.676   0.674   0.670   0.676   0.667   0.656   0.655   0.642   0.577   0.636   0.662   0.680   0.682   0.714   0.706   0.653   0.658   0.716   0.686   0.777   0.706   0.739   0.711   0.704   0.693   0.745   0.752   0.750   0.702   0.688   0.635   0.621   0.685   0.688   0.702   0.671   0.665   0.659   0.675   0.634   0.637   0.694   0.648   0.637   0.650   0.638   0.672   0.707   0.713   0.681   0.707   0.748   0.776   0.807   0.777   0.775   0.695   0.705   0.738   0.721   0.719   0.773   0.772   0.768   0.711   0.670   0.686   0.690   0.716   0.700   0.688   0.672
    94.00    0.831   0.813   0.825   0.809   0.838   0.804   0.800   0.785   0.765   0.762   0.763   0.717   0.822   0.809   0.761   0.755   0.718   0.703   0.712   0.684   0.743   0.777   0.748   0.711   0.693   0.665   0.653   0.659   0.620   0.674   0.640   0.604   0.611   0.586   0.651   0.631   0.658   0.644   0.649   0.677   0.667   0.696   0.696   0.674   0.702   0.705   0.650   0.638   0.646   0.675   0.668   0.644   0.655   0.639   0.647   0.708   0.682   0.699   0.748   0.765   0.746   0.756   0.765   0.824   0.797   0.837   0.832   0.813   0.863   0.848   0.812   0.769   0.793   0.782   0.735   0.677   0.712   0.688   0.650   0.635   0.698   0.735   0.747   0.665   0.688   0.682   0.676   0.708   0.693   0.703   0.657   0.653   0.611   0.655   0.750   0.800   0.821   0.842   0.866   0.855   0.807   0.794   0.769   0.765   0.749   0.756   0.729   0.773   0.776   0.716   0.750   0.713   0.738   0.733   0.730   0.767   0.810   0.749   0.687   0.696   0.648   0.658   0.678   0.673   0.710   0.700   0.658   0.594   0.630   0.623   0.629   0.620   0.673   0.710   0.691   0.741   0.724   0.726   0.709   0.719   0.717   0.687   0.716   0.697   0.725   0.749   0.747   0.759   0.774   0.715   0.702   0.664   0.639   0.669   0.683   0.656   0.654   0.627   0.612   0.656   0.623   0.649   0.646   0.681   0.662   0.616   0.644   0.670   0.671   0.664   0.650   0.675   0.701   0.711   0.774   0.737   0.753   0.700   0.661   0.690   0.734   0.803   0.826   0.800   0.730   0.734   0.663   0.693   0.681   0.669   0.696   0.661   0.616
    84.70    0.838   0.824   0.853   0.819   0.803   0.781   0.785   0.798   0.775   0.792   0.774   0.737   0.830   0.844   0.804   0.779   0.805   0.767   0.745   0.722   0.781   0.781   0.748   0.732   0.709   0.746   0.682   0.665   0.712   0.700   0.699   0.599   0.600   0.664   0.655   0.701   0.709   0.633   0.658   0.677   0.671   0.686   0.705   0.663   0.684   0.667   0.664   0.620   0.671   0.649   0.690   0.662   0.619   0.680   0.683   0.696   0.716   0.734   0.711   0.752   0.707   0.719   0.753   0.780   0.758   0.832   0.913   0.871   0.822   0.832   0.822   0.786   0.788   0.797   0.705   0.745   0.683   0.636   0.651   0.660   0.702   0.707   0.704   0.677   0.702   0.673   0.685   0.642   0.710   0.686   0.686   0.666   0.684   0.658   0.722   0.778   0.762   0.814   0.885   0.842   0.831   0.790   0.789   0.749   0.730   0.734   0.740   0.754   0.756   0.744   0.763   0.749   0.735   0.735   0.715   0.729   0.775   0.711   0.644   0.664   0.645   0.617   0.645   0.689   0.674   0.712   0.704   0.655   0.618   0.666   0.700   0.689   0.676   0.663   0.702   0.749   0.690   0.739   0.704   0.685   0.675   0.633   0.687   0.711   0.742   0.777   0.753   0.757   0.731   0.721   0.762   0.701   0.640   0.652   0.702   0.656   0.625   0.581   0.617   0.650   0.668   0.609   0.612   0.662   0.659   0.632   0.664   0.630   0.668   0.645   0.685   0.730   0.720   0.724   0.708   0.720   0.719   0.665   0.722   0.744   0.846   0.829   0.810   0.801   0.760   0.722   0.687   0.705   0.710   0.740   0.712   0.639   0.653
    75.40    0.822   0.868   0.857   0.828   0.803   0.777   0.765   0.794   0.815   0.789   0.773   0.753   0.785   0.792   0.815   0.805   0.784   0.763   0.776   0.785   0.799   0.772   0.753   0.708   0.725   0.768   0.727   0.715   0.754   0.735   0.693   0.660   0.618   0.650   0.673   0.681   0.667   0.623   0.631   0.644   0.647   0.705   0.693   0.727   0.744   0.780   0.734   0.663   0.671   0.670   0.677   0.675   0.661   0.638   0.677   0.690   0.700   0.741   0.770   0.755   0.733   0.736   0.736   0.762   0.773   0.828   0.874   0.865   0.865   0.800   0.802   0.824   0.816   0.801   0.782   0.738   0.767   0.689   0.696   0.687   0.688   0.701   0.712   0.683   0.735   0.749   0.733   0.730   0.766   0.717   0.684   0.684   0.714   0.670   0.735   0.754   0.761   0.775   0.876   0.863   0.810   0.713   0.732   0.713   0.733   0.719   0.695   0.729   0.781   0.762   0.802   0.821   0.765   0.752   0.751   0.709   0.687   0.700   0.680   0.674   0.645   0.660   0.658   0.684   0.678   0.649   0.638   0.626   0.666   0.638   0.698   0.687   0.670   0.692   0.711   0.728   0.713   0.719   0.702   0.668   0.699   0.683   0.667   0.697   0.737   0.721   0.723   0.758   0.736   0.717   0.743   0.693   0.710   0.705   0.667   0.679   0.621   0.571   0.616   0.623   0.614   0.591   0.609   0.655   0.682   0.660   0.617   0.644   0.672   0.687   0.656   0.721   0.763   0.717   0.689   0.706   0.716   0.722   0.724   0.723   0.790   0.844   0.784   0.775   0.777   0.736   0.662   0.691   0.691   0.733   0.723   0.699   0.683
    66.10    0.828   0.829   0.858   0.846   0.825   0.823   0.827   0.791   0.792   0.762   0.765   0.716   0.761   0.795   0.795   0.816   0.791   0.786   0.793   0.788   0.800   0.773   0.740   0.716   0.694   0.710   0.718   0.711   0.766   0.740   0.705   0.708   0.704   0.740   0.658   0.677   0.713   0.683   0.636   0.696   0.733   0.747   0.706   0.770   0.796   0.790   0.750   0.695   0.692   0.678   0.694   0.622   0.628   0.640   0.660   0.698   0.740   0.740   0.754   0.756   0.748   0.738   0.778   0.789   0.741   0.826   0.856   0.875   0.790   0.848   0.764   0.783   0.757   0.754   0.753   0.781   0.737   0.716   0.729   0.659   0.690   0.688   0.743   0.732   0.754   0.747   0.762   0.755   0.739   0.720   0.696   0.670   0.663   0.674   0.711   0.737   0.766   0.813   0.841   0.860   0.798   0.733   0.732   0.707   0.751   0.703   0.718   0.723   0.766   0.714   0.783   0.783   0.788   0.773   0.729   0.750   0.728   0.706   0.659   0.682   0.680   0.714   0.726   0.672   0.697   0.661   0.626   0.680   0.705   0.667   0.647   0.661   0.688   0.683   0.693   0.711   0.673   0.713   0.723   0.678   0.710   0.665   0.714   0.660   0.694   0.706   0.738   0.775   0.746   0.695   0.692   0.715   0.730   0.755   0.671   0.637   0.639   0.604   0.633   0.599   0.602   0.640   0.648   0.692   0.690   0.714   0.695   0.721   0.669   0.664   0.690   0.688   0.701   0.705   0.688   0.723   0.710   0.694   0.693   0.714   0.781   0.811   0.800   0.774   0.770   0.770   0.711   0.707   0.704   0.725   0.639   0.660   0.708
    56.80    0.917   0.907   0.893   0.851   0.780   0.806   0.772   0.776   0.791   0.832   0.801   0.784   0.743   0.733   0.775   0.779   0.811   0.765   0.735   0.790   0.814   0.828   0.768   0.695   0.710   0.740   0.756   0.701   0.757   0.743   0.725   0.723   0.694   0.720   0.701   0.724   0.708   0.698   0.693   0.715   0.763   0.734   0.731   0.744   0.748   0.735   0.747   0.711   0.716   0.719   0.702   0.669   0.616   0.652   0.676   0.727   0.693   0.766   0.747   0.747   0.750   0.827   0.786   0.828   0.820   0.794   0.871   0.833   0.805   0.784   0.788   0.818   0.772   0.760   0.758   0.713   0.753   0.728   0.717   0.687   0.685   0.668   0.713   0.751   0.786   0.749   0.769   0.754   0.718   0.654   0.685   0.725   0.714   0.706   0.691   0.726   0.776   0.829   0.853   0.844   0.841   0.792   0.781   0.751   0.742   0.745   0.754   0.738   0.692   0.740   0.795   0.819   0.744   0.828   0.816   0.776   0.732   0.733   0.684   0.733   0.754   0.779   0.717   0.704   0.701   0.646   0.619   0.660   0.659   0.650   0.663   0.678   0.708   0.694   0.673   0.650   0.654   0.665   0.696   0.699   0.709   0.711   0.704   0.685   0.713   0.725   0.683   0.721   0.736   0.690   0.703   0.690   0.680   0.705   0.681   0.684   0.642   0.628   0.623   0.615   0.668   0.645   0.709   0.730   0.674   0.686   0.691   0.721   0.679   0.696   0.699   0.629   0.662   0.672   0.665   0.663   0.690   0.662   0.654   0.727   0.733   0.761   0.772   0.761   0.711   0.728   0.713   0.710   0.711   0.717   0.695   0.620   0.679
    47.50    0.855   0.864   0.852   0.818   0.755   0.707   0.704   0.745   0.810   0.786   0.804   0.802   0.751   0.722   0.788   0.782   0.754   0.785   0.795   0.783   0.850   0.819   0.764   0.747   0.715   0.731   0.707   0.683   0.726   0.774   0.758   0.782   0.784   0.732   0.733   0.813   0.752   0.723   0.729   0.746   0.775   0.739   0.696   0.764   0.772   0.775   0.733   0.724   0.747   0.750   0.713   0.657   0.623   0.626   0.671   0.646   0.706   0.778   0.771   0.770   0.775   0.864   0.804   0.797   0.818   0.876   0.832   0.834   0.772   0.757   0.781   0.787   0.773   0.743   0.745   0.717   0.734   0.741   0.707   0.690   0.678   0.697   0.702   0.748   0.768   0.733   0.733   0.749   0.695   0.689   0.642   0.647   0.704   0.706   0.717   0.732   0.784   0.813   0.871   0.837   0.791   0.781   0.795   0.773   0.717   0.753   0.747   0.739   0.733   0.707   0.771   0.736   0.746   0.796   0.825   0.787   0.774   0.745   0.695   0.735   0.769   0.780   0.747   0.723   0.731   0.661   0.681   0.652   0.628   0.622   0.637   0.641   0.729   0.713   0.645   0.617   0.669   0.639   0.678   0.699   0.696   0.727   0.716   0.685   0.678   0.690   0.708   0.716   0.712   0.751   0.746   0.704   0.699   0.661   0.668   0.716   0.637   0.668   0.679   0.640   0.627   0.676   0.672   0.665   0.697   0.687   0.656   0.668   0.700   0.750   0.709   0.698   0.726   0.745   0.756   0.692   0.649   0.660   0.709   0.723   0.730   0.741   0.762   0.706   0.700   0.708   0.721   0.697   0.717   0.734   0.707   0.629   0.638
    38.20    0.807   0.795   0.812   0.757   0.712   0.711   0.660   0.700   0.748   0.809   0.784   0.788   0.735   0.734   0.739   0.797   0.785   0.784   0.843   0.818   0.834   0.784   0.726   0.744   0.692   0.692   0.706   0.669   0.651   0.715   0.746   0.783   0.769   0.774   0.743   0.772   0.717   0.778   0.774   0.796   0.788   0.791   0.749   0.745   0.759   0.745   0.737   0.746   0.733   0.750   0.669   0.650   0.630   0.629   0.603   0.690   0.714   0.725   0.758   0.844   0.889   0.892   0.879   0.884   0.867   0.856   0.802   0.786   0.771   0.705   0.711   0.721   0.724   0.712   0.747   0.764   0.722   0.712   0.683   0.702   0.726   0.688   0.703   0.732   0.731   0.729   0.682   0.726   0.751   0.719   0.685   0.679   0.725   0.706   0.755   0.779   0.827   0.840   0.807   0.821   0.808   0.818   0.766   0.721   0.708   0.756   0.783   0.745   0.795   0.789   0.767   0.775   0.743   0.767   0.805   0.808   0.783   0.773   0.769   0.740   0.763   0.773   0.684   0.690   0.692   0.676   0.693   0.650   0.621   0.658   0.657   0.690   0.770   0.702   0.687   0.669   0.677   0.639   0.650   0.676   0.673   0.686   0.696   0.663   0.654   0.716   0.734   0.668   0.700   0.726   0.726   0.696   0.723   0.657   0.680   0.719   0.716   0.726   0.698   0.718   0.696   0.665   0.709   0.677   0.656   0.610   0.651   0.655   0.712   0.731   0.686   0.698   0.763   0.777   0.757   0.686   0.647   0.668   0.692   0.745   0.734   0.746   0.766   0.698   0.696   0.713   0.741   0.702   0.730   0.704   0.670   0.672   0.649
    28.90    0.754   0.807   0.737   0.775   0.729   0.715   0.698   0.670   0.734   0.779   0.780   0.725   0.749   0.736   0.720   0.755   0.774   0.792   0.837   0.817   0.775   0.739   0.718   0.734   0.662   0.699   0.690   0.649   0.702   0.702   0.728   0.750   0.801   0.789   0.815   0.781   0.766   0.723   0.747   0.765   0.758   0.785   0.765   0.795   0.767   0.755   0.750   0.772   0.750   0.722   0.729   0.685   0.597   0.598   0.604   0.691   0.748   0.747   0.806   0.787   0.872   0.823   0.850   0.883   0.862   0.830   0.786   0.718   0.692   0.700   0.634   0.733   0.696   0.727   0.756   0.767   0.718   0.665   0.669   0.664   0.714   0.683   0.647   0.659   0.672   0.682   0.642   0.669   0.739   0.734   0.717   0.720   0.720   0.756   0.836   0.821   0.812   0.836   0.840   0.792   0.834   0.841   0.744   0.723   0.732   0.772   0.770   0.786   0.810   0.785   0.783   0.760   0.756   0.790   0.806   0.798   0.790   0.751   0.774   0.730   0.764   0.759   0.695   0.706   0.682   0.681   0.678   0.661   0.643   0.664   0.722   0.721   0.770   0.724   0.723   0.713   0.687   0.726   0.690   0.734   0.705   0.663   0.655   0.662   0.677   0.688   0.688   0.674   0.675   0.733   0.708   0.679   0.687   0.659   0.672   0.693   0.732   0.724   0.690   0.707   0.726   0.727   0.712   0.702   0.697   0.674   0.650   0.682   0.657   0.679   0.730   0.735   0.774   0.763   0.774   0.735   0.679   0.662   0.704   0.733   0.758   0.738   0.723   0.723   0.713   0.667   0.712   0.663   0.685   0.726   0.742   0.676   0.693
    19.60    0.737   0.764   0.772   0.798   0.731   0.717   0.625   0.636   0.703   0.664   0.744   0.728   0.751   0.703   0.726   0.773   0.802   0.844   0.801   0.754   0.708   0.723   0.763   0.720   0.668   0.699   0.709   0.716   0.748   0.711   0.750   0.760   0.796   0.813   0.813   0.787   0.726   0.697   0.752   0.756   0.773   0.741   0.758   0.730   0.693   0.720   0.768   0.759   0.776   0.805   0.770   0.716   0.751   0.715   0.718   0.768   0.791   0.818   0.799   0.781   0.831   0.826   0.799   0.819   0.785   0.789   0.748   0.685   0.648   0.681   0.699   0.683   0.760   0.726   0.752   0.798   0.761   0.685   0.718   0.689   0.655   0.662   0.637   0.596   0.592   0.673   0.687   0.646   0.738   0.721   0.725   0.709   0.734   0.748   0.805   0.815   0.825   0.835   0.862   0.832   0.864   0.846   0.871   0.810   0.832   0.765   0.777   0.754   0.747   0.721   0.700   0.704   0.775   0.816   0.859   0.822   0.816   0.749   0.756   0.768   0.720   0.746   0.711   0.677   0.700   0.686   0.707   0.697   0.723   0.671   0.688   0.722   0.717   0.751   0.731   0.636   0.679   0.691   0.687   0.731   0.667   0.656   0.651   0.664   0.690   0.662   0.655   0.701   0.708   0.718   0.688   0.669   0.638   0.664   0.656   0.699   0.682   0.752   0.719   0.746   0.732   0.763   0.682   0.666   0.639   0.635   0.655   0.682   0.669   0.672   0.717   0.731   0.743   0.788   0.763   0.764   0.738   0.681   0.687   0.763   0.733   0.762   0.792   0.743   0.722   0.696   0.658   0.670   0.663   0.667   0.683   0.664   0.666
    10.30    0.695   0.753   0.771   0.782   0.691   0.686   0.639   0.619   0.592   0.692   0.728   0.744   0.757   0.705   0.722   0.711   0.754   0.755   0.717   0.731   0.709   0.728   0.727   0.693   0.657   0.706   0.748   0.753   0.784   0.721   0.774   0.765   0.762   0.776   0.800   0.798   0.789   0.739   0.703   0.787   0.763   0.720   0.727   0.778   0.764   0.709   0.770   0.790   0.778   0.758   0.752   0.726   0.766   0.776   0.792   0.816   0.849   0.836   0.768   0.819   0.780   0.805   0.812   0.802   0.789   0.734   0.756   0.722   0.675   0.672   0.684   0.710   0.717   0.738   0.737   0.742   0.756   0.719   0.660   0.693   0.639   0.637   0.682   0.661   0.657   0.599   0.607   0.658   0.712   0.722   0.723   0.709   0.702   0.733   0.761   0.792   0.823   0.818   0.816   0.805   0.819   0.903   0.937   0.815   0.838   0.800   0.813   0.781   0.701   0.698   0.687   0.716   0.766   0.823   0.833   0.876   0.793   0.789   0.812   0.772   0.762   0.708   0.703   0.671   0.735   0.688   0.734   0.747   0.712   0.716   0.695   0.693   0.705   0.756   0.725   0.681   0.645   0.648   0.652   0.696   0.651   0.682   0.664   0.638   0.644   0.678   0.684   0.687   0.701   0.729   0.744   0.689   0.654   0.701   0.707   0.667   0.650   0.708   0.741   0.749   0.712   0.706   0.706   0.710   0.653   0.653   0.695   0.699   0.646   0.694   0.711   0.717   0.802   0.761   0.771   0.762   0.758   0.711   0.745   0.773   0.754   0.780   0.751   0.696   0.695   0.715   0.710   0.670   0.643   0.631   0.622   0.612   0.626
     1.00    0.716   0.723   0.736   0.714   0.733   0.674   0.627   0.609   0.629   0.658   0.685   0.740   0.687   0.741   0.684   0.684   0.704   0.676   0.695   0.674   0.669   0.665   0.659   0.682   0.717   0.764   0.767   0.787   0.834   0.754   0.749   0.711   0.792   0.728   0.787   0.791   0.816   0.755   0.720   0.740   0.723   0.741   0.782   0.730   0.735   0.711   0.754   0.788   0.750   0.714   0.733   0.716   0.720   0.738   0.779   0.808   0.855   0.824   0.783   0.775   0.822   0.783   0.793   0.732   0.721   0.691   0.697   0.731   0.695   0.714   0.686   0.665   0.673   0.715   0.742   0.721   0.714   0.722   0.688   0.671   0.662   0.644   0.690   0.655   0.656   0.610   0.634   0.649   0.655   0.703   0.697   0.657   0.692   0.715   0.701   0.724   0.777   0.794   0.837   0.873   0.852   0.878   0.850   0.811   0.782   0.780   0.812   0.753   0.725   0.733   0.741   0.748   0.769   0.732   0.799   0.860   0.815   0.834   0.818   0.801   0.703   0.707   0.711   0.753   0.751   0.711   0.750   0.707   0.725   0.719   0.720   0.751   0.724   0.724   0.696   0.679   0.645   0.640   0.716   0.702   0.655   0.646   0.625   0.630   0.593   0.651   0.687   0.724   0.756   0.756   0.756   0.715   0.707   0.711   0.735   0.745   0.716   0.696   0.721   0.737   0.761   0.754   0.713   0.704   0.695   0.671   0.683   0.708   0.630   0.679   0.716   0.778   0.787   0.795   0.800   0.815   0.790   0.751   0.755   0.734   0.740   0.759   0.698   0.668   0.667   0.678   0.674   0.647   0.664   0.677   0.609   0.646   0.634

   Height   Standard deviation at grid points for the v component:
   354.40    0.652   0.593   0.622   0.614   0.552   0.570   0.556   0.548   0.548   0.572   0.553   0.565   0.535   0.552   0.566   0.538   0.577   0.582   0.594   0.565   0.602   0.572   0.555   0.570   0.603   0.587   0.586   0.552   0.553   0.552   0.548   0.543   0.515   0.510   0.537   0.571   0.592   0.605   0.578   0.595   0.593   0.591   0.599   0.572   0.584   0.575   0.583   0.551   0.549   0.566   0.582   0.604   0.606   0.613   0.586   0.583   0.579   0.595   0.604   0.597   0.571   0.572   0.570   0.602   0.599   0.612   0.584   0.566   0.540   0.546   0.546   0.507   0.515   0.528   0.552   0.561   0.544   0.510   0.514   0.531   0.549   0.587   0.569   0.567   0.581   0.560   0.589   0.601   0.620   0.613   0.606   0.610   0.638   0.627   0.626   0.628   0.630   0.572   0.566   0.580   0.578   0.563   0.558   0.535   0.549   0.535   0.529   0.529   0.528   0.523   0.517   0.531   0.536   0.542   0.535   0.543   0.550   0.560   0.541   0.541   0.541   0.587   0.584   0.604   0.574   0.600   0.622   0.618   0.649   0.609   0.654   0.637   0.602   0.615   0.634   0.632   0.635   0.591   0.585   0.609   0.580   0.596   0.594   0.552   0.527   0.559   0.579   0.549   0.557   0.574   0.544   0.527   0.542   0.558   0.555   0.552   0.574   0.571   0.586   0.556   0.566   0.535   0.547   0.544   0.550   0.564   0.559   0.520   0.516   0.536   0.569   0.549   0.593   0.597   0.565   0.557   0.581   0.584   0.573   0.594   0.595   0.624   0.592   0.606   0.574   0.556   0.537   0.551   0.541   0.536   0.572   0.579   0.594
   345.10    0.618   0.596   0.572   0.558   0.559   0.563   0.553   0.548   0.539   0.573   0.568   0.552   0.543   0.527   0.528   0.525   0.553   0.580   0.581   0.571   0.611   0.571   0.553   0.579   0.611   0.618   0.597   0.609   0.562   0.545   0.535   0.535   0.521   0.508   0.546   0.547   0.573   0.568   0.590   0.582   0.604   0.576   0.575   0.595   0.593   0.559   0.562   0.558   0.577   0.566   0.571   0.564   0.600   0.612   0.622   0.608   0.616   0.596   0.599   0.570   0.566   0.549   0.559   0.569   0.615   0.605   0.595   0.549   0.534   0.539   0.548   0.542   0.532   0.531   0.541   0.523   0.537   0.537   0.488   0.518   0.539   0.564   0.577   0.602   0.582   0.594   0.593   0.603   0.631   0.637   0.595   0.619   0.620   0.623   0.651   0.625   0.598   0.571   0.592   0.576   0.589   0.587   0.572   0.536   0.521   0.533   0.526   0.543   0.535   0.544   0.534   0.554   0.550   0.551   0.573   0.578   0.565   0.566   0.595   0.573   0.555   0.593   0.588   0.630   0.607   0.628   0.643   0.627   0.630   0.620   0.651   0.672   0.659   0.663   0.686   0.641   0.638   0.607   0.600   0.581   0.588   0.593   0.583   0.564   0.572   0.542   0.570   0.582   0.576   0.555   0.549   0.533   0.546   0.557   0.574   0.593   0.580   0.579   0.585   0.579   0.571   0.550   0.511   0.531   0.549   0.563   0.559   0.513   0.519   0.511   0.549   0.576   0.579   0.553   0.558   0.543   0.565   0.573   0.587   0.602   0.600   0.608   0.600   0.603   0.583   0.563   0.562   0.532   0.544   0.560   0.574   0.583   0.592
   335.80    0.584   0.605   0.599   0.553   0.547   0.552   0.523   0.541   0.570   0.551   0.554   0.522   0.534   0.557   0.553   0.537   0.560   0.583   0.581   0.598   0.605   0.577   0.569   0.566   0.613   0.612   0.601   0.611   0.570   0.586   0.519   0.539   0.520   0.537   0.547   0.556   0.589   0.592   0.590   0.581   0.608   0.571   0.589   0.563   0.542   0.565   0.541   0.560   0.556   0.543   0.565   0.588   0.563   0.575   0.603   0.618   0.607   0.606   0.592   0.579   0.554   0.548   0.554   0.554   0.575   0.602   0.560   0.563   0.574   0.559   0.550   0.536   0.533   0.515   0.526   0.530   0.544   0.489   0.479   0.494   0.523   0.548   0.569   0.565   0.576   0.581   0.582   0.610   0.631   0.645   0.633   0.602   0.599   0.634   0.595   0.624   0.614   0.604   0.628   0.600   0.617   0.613   0.570   0.561   0.557   0.545   0.533   0.522   0.549   0.550   0.530   0.561   0.570   0.555   0.549   0.532   0.541   0.560   0.597   0.600   0.595   0.585   0.600   0.626   0.603   0.632   0.623   0.631   0.622   0.621   0.670   0.658   0.664   0.636   0.657   0.640   0.609   0.586   0.564   0.543   0.557   0.593   0.597   0.572   0.580   0.560   0.562   0.577   0.565   0.571   0.564   0.565   0.578   0.572   0.571   0.588   0.555   0.565   0.557   0.558   0.560   0.574   0.536   0.510   0.493   0.521   0.543   0.550   0.546   0.566   0.582   0.566   0.571   0.544   0.548   0.557   0.553   0.568   0.582   0.593   0.572   0.557   0.569   0.575   0.548   0.550   0.569   0.531   0.563   0.594   0.596   0.615   0.606
   326.50    0.572   0.592   0.577   0.569   0.528   0.511   0.490   0.543   0.587   0.553   0.551   0.543   0.554   0.529   0.551   0.539   0.556   0.568   0.598   0.616   0.611   0.591   0.554   0.559   0.615   0.621   0.583   0.613   0.593   0.553   0.536   0.519   0.534   0.553   0.553   0.564   0.572   0.599   0.591   0.588   0.599   0.595   0.580   0.532   0.549   0.564   0.547   0.537   0.562   0.565   0.590   0.567   0.566   0.566   0.615   0.603   0.603   0.612   0.589   0.575   0.562   0.575   0.596   0.592   0.578   0.604   0.590   0.567   0.563   0.574   0.560   0.582   0.543   0.526   0.522   0.539   0.507   0.502   0.492   0.481   0.491   0.547   0.549   0.546   0.577   0.555   0.578   0.589   0.623   0.610   0.614   0.602   0.589   0.622   0.624   0.610   0.597   0.613   0.595   0.581   0.592   0.607   0.569   0.572   0.547   0.525   0.554   0.538   0.523   0.537   0.562   0.558   0.564   0.572   0.576   0.551   0.531   0.550   0.570   0.587   0.605   0.647   0.625   0.620   0.609   0.598   0.633   0.617   0.608   0.639   0.621   0.645   0.654   0.647   0.645   0.641   0.626   0.593   0.540   0.551   0.570   0.598   0.600   0.600   0.617   0.597   0.587   0.567   0.575   0.565   0.577   0.612   0.627   0.604   0.614   0.579   0.589   0.584   0.580   0.555   0.569   0.560   0.552   0.529   0.512   0.533   0.532   0.525   0.547   0.544   0.544   0.563   0.604   0.576   0.577   0.549   0.555   0.554   0.554   0.561   0.564   0.563   0.550   0.556   0.568   0.570   0.574   0.555   0.582   0.595   0.595   0.641   0.639
[...]
   103.30    0.345   0.358   0.355   0.354   0.360   0.355   0.352   0.353   0.347   0.361   0.357   0.348   0.347   0.351   0.351   0.344   0.345   0.350   0.341   0.349   0.340   0.343   0.350   0.330   0.343   0.341   0.348   0.351   0.354   0.360   0.360   0.359   0.358   0.356   0.354   0.364   0.359   0.356   0.358   0.344   0.357   0.349   0.360   0.351   0.357   0.358   0.371   0.369   0.353   0.343   0.345   0.355   0.355   0.357   0.350   0.347   0.344   0.357   0.340   0.356   0.364   0.354   0.358   0.362   0.361   0.370   0.366   0.364   0.366   0.362   0.362   0.355   0.369   0.360   0.349   0.351   0.351   0.356   0.358   0.359   0.341   0.337   0.350   0.352   0.360   0.362   0.359   0.364   0.376   0.361   0.359   0.363   0.357   0.361   0.354   0.349   0.347   0.351   0.351   0.338   0.346   0.361   0.348   0.357   0.358   0.356   0.346   0.340   0.355   0.357   0.356   0.358   0.357   0.352   0.348   0.350   0.346   0.344   0.360   0.354   0.358   0.362   0.361   0.351   0.362   0.369   0.372   0.368   0.363   0.362   0.354   0.361   0.340   0.348   0.348   0.350   0.352   0.363   0.367   0.371   0.374   0.366   0.372   0.366   0.353   0.363   0.368   0.364   0.349   0.353   0.361   0.358   0.356   0.345   0.347   0.349   0.351   0.350   0.364   0.368   0.351   0.355   0.356   0.347   0.341   0.340   0.342   0.358   0.353   0.359   0.353   0.358   0.360   0.348   0.351   0.357   0.350   0.350   0.345   0.352   0.352   0.344   0.348   0.359   0.363   0.362   0.360   0.352   0.352   0.353   0.364   0.363   0.364
    94.00    0.346   0.353   0.354   0.349   0.367   0.362   0.353   0.347   0.354   0.344   0.344   0.353   0.354   0.349   0.349   0.342   0.340   0.354   0.348   0.345   0.350   0.357   0.341   0.330   0.328   0.348   0.348   0.349   0.353   0.366   0.368   0.370   0.369   0.352   0.351   0.353   0.359   0.356   0.347   0.351   0.354   0.362   0.359   0.368   0.370   0.368   0.363   0.346   0.356   0.352   0.343   0.359   0.359   0.337   0.345   0.347   0.351   0.365   0.372   0.369   0.365   0.360   0.361   0.367   0.366   0.362   0.363   0.367   0.367   0.354   0.368   0.365   0.369   0.370   0.345   0.342   0.352   0.346   0.347   0.341   0.354   0.352   0.351   0.358   0.358   0.374   0.353   0.371   0.370   0.366   0.362   0.365   0.370   0.363   0.361   0.357   0.359   0.356   0.358   0.350   0.359   0.350   0.352   0.349   0.357   0.351   0.350   0.344   0.356   0.352   0.357   0.352   0.350   0.359   0.358   0.359   0.342   0.346   0.347   0.369   0.363   0.350   0.349   0.347   0.348   0.361   0.366   0.367   0.358   0.348   0.354   0.355   0.346   0.356   0.350   0.362   0.361   0.362   0.364   0.376   0.375   0.373   0.361   0.355   0.349   0.355   0.362   0.355   0.356   0.354   0.363   0.365   0.352   0.350   0.347   0.362   0.357   0.350   0.345   0.358   0.357   0.352   0.357   0.352   0.350   0.351   0.344   0.343   0.348   0.350   0.351   0.359   0.351   0.350   0.351   0.361   0.365   0.357   0.347   0.350   0.357   0.360   0.352   0.349   0.360   0.369   0.370   0.360   0.365   0.373   0.374   0.362   0.367
    84.70    0.348   0.353   0.345   0.350   0.364   0.363   0.354   0.361   0.354   0.350   0.347   0.339   0.338   0.361   0.343   0.343   0.332   0.353   0.351   0.349   0.353   0.353   0.344   0.351   0.339   0.353   0.350   0.348   0.368   0.365   0.376   0.370   0.350   0.349   0.348   0.349   0.349   0.358   0.352   0.360   0.363   0.370   0.356   0.368   0.368   0.354   0.350   0.354   0.350   0.352   0.362   0.361   0.356   0.343   0.342   0.341   0.349   0.359   0.354   0.356   0.368   0.361   0.363   0.357   0.355   0.357   0.372   0.361   0.366   0.371   0.369   0.370   0.366   0.367   0.370   0.357   0.354   0.358   0.359   0.347   0.354   0.355   0.355   0.359   0.362   0.370   0.368   0.367   0.376   0.388   0.373   0.363   0.374   0.361   0.367   0.369   0.367   0.364   0.358   0.370   0.361   0.364   0.361   0.373   0.365   0.358   0.349   0.350   0.352   0.360   0.354   0.363   0.364   0.363   0.363   0.365   0.356   0.352   0.362   0.360   0.352   0.354   0.358   0.354   0.348   0.356   0.361   0.371   0.361   0.348   0.357   0.353   0.348   0.344   0.358   0.366   0.358   0.369   0.363   0.372   0.372   0.358   0.351   0.348   0.354   0.357   0.361   0.356   0.348   0.356   0.356   0.355   0.346   0.351   0.359   0.354   0.366   0.357   0.348   0.356   0.361   0.347   0.345   0.349   0.352   0.354   0.345   0.339   0.340   0.343   0.351   0.353   0.354   0.347   0.359   0.363   0.361   0.351   0.333   0.347   0.358   0.352   0.351   0.355   0.359   0.368   0.376   0.374   0.378   0.388   0.379   0.381   0.369
    75.40    0.346   0.353   0.356   0.371   0.363   0.363   0.361   0.347   0.364   0.353   0.354   0.343   0.360   0.365   0.359   0.367   0.352   0.353   0.371   0.356   0.356   0.348   0.352   0.347   0.341   0.346   0.344   0.348   0.357   0.368   0.366   0.373   0.368   0.356   0.335   0.353   0.362   0.344   0.349   0.355   0.363   0.353   0.352   0.361   0.353   0.347   0.347   0.352   0.349   0.345   0.352   0.350   0.340   0.348   0.344   0.323   0.347   0.354   0.343   0.346   0.358   0.337   0.352   0.353   0.349   0.359   0.368   0.370   0.378   0.377   0.382   0.367   0.374   0.376   0.361   0.356   0.370   0.359   0.361   0.348   0.344   0.357   0.348   0.360   0.364   0.377   0.375   0.374   0.378   0.380   0.377   0.370   0.370   0.366   0.378   0.368   0.363   0.376   0.371   0.365   0.364   0.365   0.369   0.372   0.364   0.349   0.356   0.356   0.348   0.359   0.349   0.354   0.355   0.362   0.368   0.360   0.356   0.352   0.355   0.350   0.350   0.358   0.362   0.360   0.358   0.360   0.360   0.367   0.361   0.351   0.371   0.367   0.347   0.358   0.367   0.369   0.362   0.357   0.358   0.369   0.357   0.347   0.344   0.342   0.349   0.358   0.364   0.355   0.341   0.358   0.346   0.347   0.347   0.349   0.353   0.373   0.366   0.353   0.357   0.352   0.346   0.352   0.351   0.330   0.345   0.362   0.358   0.349   0.344   0.346   0.354   0.357   0.346   0.361   0.352   0.359   0.358   0.349   0.342   0.340   0.340   0.353   0.351   0.362   0.353   0.357   0.368   0.371   0.373   0.380   0.373   0.375   0.367
    66.10    0.349   0.360   0.352   0.363   0.364   0.349   0.345   0.357   0.352   0.359   0.332   0.344   0.357   0.346   0.351   0.366   0.350   0.356   0.359   0.355   0.359   0.348   0.351   0.362   0.344   0.348   0.360   0.360   0.356   0.369   0.377   0.369   0.362   0.371   0.343   0.356   0.362   0.359   0.356   0.357   0.353   0.356   0.355   0.355   0.347   0.348   0.346   0.351   0.337   0.349   0.350   0.335   0.337   0.338   0.342   0.341   0.344   0.337   0.337   0.340   0.346   0.365   0.360   0.359   0.358   0.363   0.370   0.375   0.374   0.376   0.373   0.362   0.377   0.378   0.381   0.374   0.363   0.366   0.360   0.350   0.352   0.353   0.349   0.357   0.369   0.377   0.377   0.376   0.378   0.371   0.369   0.353   0.373   0.368   0.361   0.358   0.361   0.363   0.364   0.371   0.361   0.369   0.366   0.374   0.369   0.370   0.367   0.361   0.357   0.358   0.368   0.348   0.354   0.352   0.371   0.359   0.347   0.356   0.351   0.367   0.375   0.361   0.375   0.370   0.363   0.356   0.356   0.359   0.351   0.348   0.354   0.362   0.354   0.363   0.358   0.362   0.360   0.365   0.350   0.354   0.358   0.368   0.362   0.354   0.354   0.366   0.350   0.354   0.349   0.359   0.361   0.357   0.362   0.351   0.355   0.353   0.369   0.357   0.357   0.339   0.344   0.347   0.355   0.356   0.337   0.358   0.358   0.345   0.350   0.342   0.356   0.360   0.359   0.363   0.361   0.362   0.359   0.352   0.347   0.341   0.341   0.344   0.356   0.357   0.354   0.359   0.378   0.367   0.374   0.390   0.384   0.376   0.356
    56.80    0.355   0.355   0.360   0.352   0.337   0.348   0.342   0.352   0.354   0.354   0.348   0.351   0.355   0.361   0.350   0.348   0.353   0.350   0.355   0.350   0.339   0.353   0.347   0.348   0.345   0.345   0.349   0.355   0.353   0.350   0.361   0.363   0.373   0.373   0.360   0.362   0.355   0.358   0.362   0.358   0.364   0.370   0.350   0.349   0.348   0.344   0.343   0.347   0.348   0.338   0.341   0.342   0.344   0.356   0.331   0.335   0.336   0.332   0.343   0.345   0.353   0.356   0.357   0.346   0.350   0.361   0.377   0.370   0.384   0.379   0.372   0.368   0.377   0.370   0.369   0.373   0.351   0.370   0.358   0.359   0.359   0.348   0.357   0.375   0.377   0.368   0.379   0.373   0.379   0.384   0.375   0.381   0.373   0.367   0.352   0.350   0.366   0.363   0.350   0.360   0.383   0.370   0.377   0.379   0.378   0.363   0.361   0.362   0.359   0.365   0.372   0.355   0.357   0.355   0.355   0.362   0.348   0.353   0.352   0.354   0.364   0.370   0.366   0.367   0.358   0.356   0.365   0.367   0.373   0.359   0.355   0.352   0.355   0.362   0.362   0.353   0.359   0.359   0.362   0.356   0.362   0.366   0.363   0.361   0.353   0.363   0.367   0.365   0.350   0.355   0.351   0.366   0.369   0.353   0.351   0.357   0.368   0.358   0.343   0.335   0.340   0.338   0.354   0.359   0.346   0.363   0.358   0.354   0.362   0.343   0.357   0.356   0.364   0.358   0.365   0.358   0.364   0.347   0.358   0.348   0.350   0.345   0.350   0.365   0.359   0.362   0.362   0.365   0.389   0.378   0.376   0.360   0.364
    47.50    0.349   0.357   0.346   0.354   0.345   0.346   0.356   0.357   0.364   0.357   0.377   0.367   0.370   0.368   0.360   0.332   0.348   0.367   0.354   0.344   0.340   0.354   0.354   0.354   0.348   0.352   0.346   0.338   0.356   0.365   0.361   0.364   0.350   0.360   0.350   0.346   0.347   0.347   0.352   0.340   0.348   0.354   0.366   0.356   0.353   0.352   0.346   0.346   0.341   0.338   0.344   0.340   0.348   0.345   0.340   0.338   0.329   0.336   0.342   0.340   0.345   0.358   0.356   0.349   0.360   0.354   0.358   0.368   0.368   0.367   0.370   0.382   0.380   0.375   0.359   0.359   0.364   0.367   0.371   0.363   0.355   0.355   0.362   0.371   0.368   0.357   0.364   0.361   0.357   0.366   0.372   0.374   0.380   0.364   0.356   0.362   0.360   0.355   0.352   0.363   0.373   0.357   0.370   0.368   0.366   0.368   0.370   0.361   0.362   0.358   0.371   0.349   0.340   0.351   0.347   0.345   0.357   0.358   0.363   0.362   0.355   0.363   0.361   0.368   0.368   0.360   0.357   0.369   0.359   0.361   0.355   0.361   0.365   0.361   0.355   0.350   0.360   0.364   0.364   0.369   0.371   0.359   0.362   0.359   0.365   0.368   0.360   0.369   0.357   0.358   0.350   0.368   0.357   0.362   0.367   0.356   0.355   0.343   0.342   0.342   0.340   0.345   0.355   0.353   0.346   0.365   0.353   0.350   0.352   0.364   0.373   0.362   0.353   0.359   0.365   0.374   0.366   0.364   0.363   0.361   0.348   0.361   0.357   0.354   0.358   0.357   0.365   0.365   0.374   0.368   0.376   0.360   0.345
    38.20    0.344   0.347   0.358   0.353   0.361   0.341   0.352   0.360   0.359   0.365   0.374   0.383   0.379   0.366   0.355   0.360   0.352   0.362   0.353   0.351   0.340   0.356   0.346   0.339   0.353   0.349   0.351   0.363   0.357   0.364   0.366   0.367   0.349   0.361   0.352   0.354   0.352   0.351   0.362   0.346   0.348   0.356   0.354   0.351   0.353   0.345   0.342   0.351   0.344   0.341   0.343   0.342   0.341   0.343   0.355   0.327   0.335   0.349   0.349   0.351   0.357   0.359   0.361   0.364   0.359   0.361   0.357   0.367   0.372   0.357   0.365   0.370   0.384   0.378   0.371   0.372   0.351   0.363   0.364   0.364   0.357   0.359   0.363   0.373   0.370   0.362   0.355   0.366   0.365   0.360   0.364   0.378   0.382   0.372   0.370   0.362   0.356   0.352   0.357   0.353   0.358   0.359   0.362   0.355   0.371   0.359   0.349   0.366   0.355   0.338   0.350   0.350   0.342   0.354   0.346   0.347   0.343   0.354   0.365   0.368   0.364   0.371   0.360   0.360   0.363   0.359   0.351   0.366   0.356   0.353   0.365   0.368   0.377   0.364   0.357   0.354   0.361   0.350   0.356   0.372   0.359   0.359   0.374   0.367   0.360   0.359   0.357   0.360   0.365   0.366   0.366   0.359   0.366   0.364   0.357   0.366   0.360   0.353   0.335   0.337   0.338   0.332   0.343   0.353   0.352   0.361   0.352   0.356   0.351   0.363   0.368   0.356   0.356   0.360   0.368   0.366   0.378   0.360   0.365   0.365   0.368   0.367   0.371   0.370   0.366   0.359   0.370   0.354   0.372   0.346   0.361   0.354   0.351
    28.90    0.347   0.345   0.349   0.356   0.348   0.353   0.357   0.351   0.345   0.361   0.374   0.368   0.369   0.362   0.358   0.345   0.349   0.350   0.357   0.352   0.347   0.343   0.349   0.347   0.345   0.356   0.360   0.369   0.368   0.375   0.363   0.361   0.350   0.355   0.369   0.356   0.361   0.353   0.354   0.350   0.353   0.360   0.351   0.351   0.346   0.347   0.349   0.351   0.343   0.349   0.342   0.340   0.348   0.342   0.353   0.340   0.348   0.352   0.347   0.348   0.367   0.353   0.359   0.375   0.376   0.361   0.365   0.358   0.371   0.350   0.369   0.377   0.372   0.375   0.373   0.371   0.367   0.366   0.372   0.355   0.370   0.370   0.365   0.369   0.367   0.359   0.348   0.362   0.363   0.361   0.353   0.366   0.373   0.374   0.369   0.369   0.352   0.353   0.351   0.353   0.355   0.358   0.359   0.364   0.367   0.358   0.365   0.378   0.358   0.353   0.347   0.351   0.355   0.371   0.362   0.359   0.361   0.359   0.359   0.369   0.362   0.379   0.362   0.351   0.359   0.359   0.345   0.362   0.363   0.353   0.352   0.366   0.375   0.359   0.364   0.359   0.362   0.352   0.350   0.359   0.359   0.363   0.372   0.366   0.362   0.359   0.359   0.361   0.365   0.370   0.366   0.364   0.365   0.368   0.373   0.366   0.372   0.370   0.360   0.353   0.347   0.346   0.351   0.347   0.346   0.358   0.371   0.355   0.358   0.359   0.355   0.350   0.362   0.353   0.358   0.367   0.356   0.375   0.368   0.371   0.374   0.372   0.377   0.375   0.358   0.363   0.349   0.358   0.362   0.359   0.353   0.352   0.342
    19.60    0.356   0.344   0.350   0.357   0.354   0.348   0.346   0.355   0.346   0.346   0.359   0.358   0.354   0.357   0.356   0.351   0.349   0.361   0.358   0.353   0.352   0.347   0.343   0.365   0.354   0.362   0.378   0.375   0.376   0.364   0.356   0.354   0.356   0.354   0.356   0.367   0.366   0.362   0.354   0.344   0.344   0.347   0.346   0.343   0.338   0.339   0.350   0.365   0.362   0.356   0.345   0.345   0.342   0.354   0.343   0.350   0.352   0.348   0.357   0.364   0.364   0.364   0.364   0.365   0.375   0.368   0.370   0.357   0.368   0.369   0.386   0.381   0.380   0.385   0.383   0.385   0.372   0.360   0.373   0.365   0.363   0.360   0.371   0.367   0.372   0.368   0.365   0.367   0.362   0.347   0.348   0.356   0.361   0.352   0.366   0.358   0.362   0.358   0.352   0.356   0.355   0.362   0.360   0.365   0.358   0.363   0.364   0.382   0.369   0.372   0.354   0.345   0.351   0.359   0.372   0.361   0.352   0.345   0.352   0.354   0.369   0.379   0.364   0.366   0.360   0.366   0.352   0.352   0.349   0.351   0.341   0.346   0.361   0.362   0.351   0.359   0.355   0.368   0.364   0.351   0.356   0.360   0.357   0.363   0.369   0.368   0.346   0.370   0.362   0.366   0.368   0.369   0.372   0.381   0.372   0.359   0.374   0.358   0.374   0.370   0.350   0.358   0.352   0.357   0.365   0.359   0.361   0.357   0.356   0.354   0.354   0.341   0.350   0.346   0.354   0.359   0.367   0.359   0.369   0.359   0.364   0.373   0.380   0.370   0.355   0.356   0.348   0.359   0.355   0.360   0.357   0.342   0.337
    10.30    0.336   0.352   0.362   0.357   0.349   0.351   0.345   0.354   0.342   0.347   0.357   0.366   0.361   0.353   0.347   0.344   0.346   0.344   0.345   0.355   0.366   0.371   0.360   0.359   0.359   0.360   0.369   0.386   0.374   0.350   0.352   0.341   0.341   0.343   0.356   0.336   0.351   0.361   0.351   0.347   0.354   0.354   0.343   0.342   0.343   0.354   0.353   0.342   0.351   0.341   0.356   0.352   0.339   0.341   0.347   0.346   0.350   0.349   0.357   0.357   0.360   0.367   0.351   0.370   0.379   0.379   0.376   0.365   0.355   0.372   0.382   0.364   0.386   0.378   0.369   0.375   0.382   0.369   0.356   0.355   0.365   0.363   0.362   0.366   0.371   0.365   0.371   0.369   0.359   0.356   0.350   0.345   0.346   0.353   0.360   0.363   0.358   0.363   0.362   0.364   0.365   0.368   0.357   0.350   0.364   0.373   0.372   0.374   0.374   0.370   0.354   0.350   0.353   0.350   0.361   0.354   0.350   0.346   0.356   0.354   0.368   0.371   0.359   0.357   0.352   0.357   0.354   0.347   0.353   0.362   0.338   0.348   0.358   0.356   0.367   0.365   0.350   0.352   0.365   0.357   0.367   0.345   0.357   0.357   0.358   0.353   0.348   0.352   0.361   0.367   0.373   0.378   0.370   0.371   0.366   0.370   0.367   0.371   0.373   0.378   0.366   0.375   0.351   0.351   0.356   0.356   0.357   0.351   0.354   0.353   0.350   0.344   0.350   0.355   0.361   0.358   0.352   0.364   0.362   0.365   0.366   0.370   0.366   0.359   0.365   0.353   0.363   0.361   0.356   0.363   0.350   0.344   0.350
     1.00    0.356   0.365   0.365   0.373   0.364   0.352   0.348   0.352   0.359   0.358   0.366   0.360   0.351   0.342   0.348   0.343   0.350   0.349   0.353   0.355   0.367   0.362   0.362   0.360   0.357   0.357   0.357   0.367   0.367   0.356   0.338   0.342   0.339   0.343   0.352   0.342   0.344   0.350   0.352   0.350   0.348   0.349   0.353   0.349   0.360   0.364   0.369   0.345   0.334   0.347   0.339   0.348   0.356   0.354   0.342   0.339   0.335   0.343   0.361   0.360   0.360   0.366   0.360   0.361   0.367   0.368   0.377   0.368   0.367   0.363   0.372   0.372   0.371   0.374   0.379   0.384   0.386   0.371   0.360   0.351   0.351   0.357   0.358   0.355   0.359   0.367   0.367   0.367   0.366   0.361   0.353   0.346   0.352   0.346   0.351   0.361   0.356   0.358   0.361   0.369   0.364   0.362   0.364   0.355   0.367   0.373   0.377   0.377   0.364   0.372   0.359   0.358   0.355   0.352   0.361   0.347   0.355   0.355   0.364   0.356   0.351   0.359   0.348   0.351   0.368   0.357   0.350   0.341   0.344   0.353   0.342   0.343   0.354   0.360   0.370   0.365   0.353   0.359   0.366   0.360   0.363   0.366   0.367   0.370   0.359   0.360   0.352   0.341   0.352   0.345   0.359   0.359   0.362   0.370   0.379   0.376   0.368   0.367   0.367   0.370   0.363   0.383   0.363   0.369   0.368   0.355   0.354   0.355   0.354   0.356   0.351   0.345   0.363   0.362   0.357   0.363   0.355   0.356   0.374   0.348   0.362   0.355   0.352   0.363   0.366   0.354   0.360   0.365   0.361   0.353   0.352   0.351   0.359

   Mean standard deviation across all grid points:
      u component:    0.728 m/s
      v component:    0.571 m/s
      w component:    0.357 m/s


U-component (X) statistics from the interpolated hub point:

   Mean =   9.7063 m/s
   TI   =   7.6564 %


Processing complete.  2.16685E+05 CPU seconds used.
