
This summary file was generated by TurbSim (from OpenFAST-v3.5.3) on 19-Apr-2025 at 23:44:51.


Runtime Options:

**********  Random seed #1
    RANLUX  Type of random number generator
         F  Output binary HH turbulence parameters?
         F  Output formatted turbulence parameters?
         F  Output AeroDyn HH files?
         T  Output AeroDyn FF files?
         F  Output BLADED FF files?
         F  Output tower data?
         F  Output HAWC FF files?
         F  Output formatted FF files?
         T  Output coherent turbulence time step file?
 0 -  NONE  IEC turbulence models scaled to exact specified standard deviation


Turbine/Model Specifications:

        39  Vertical grid-point matrix dimension
       193  Horizontal grid-point matrix dimension
     0.250  Time step [seconds]
   900.000  Analysis time [seconds]
   900.000  Usable output time [seconds]
   177.700  Hub height [m]
   353.400  Grid height [m]
  1785.600  Grid width [m]
     0.000  Vertical flow angle [degrees]
     0.000  Horizontal flow angle [degrees]


Meteorological Boundary Conditions:

    IECKAI  IEC Kaimal spectral model
         1  IEC standard: IEC 61400-1 Ed. 3: 2005
     7.500  Percent turbulence intensity, IEC 61400-1 Ed. 3: 2005
       NTM  IEC Normal Turbulence Model
       N/A  IEC Extreme Turbulence Model (ETM) "c" parameter [m/s]
       USR  Wind profile type
    90.000  Reference height [m]
       N/A  Reference wind speed [m/s]
       N/A  Jet height [m]
       N/A  Power law exponent
     0.030  Surface roughness length [m]


Non-IEC Meteorological Boundary Conditions:

       N/A  Site latitude [degrees]
       N/A  Gradient Richardson number
       N/A  Friction or shear velocity [m/s]
       N/A  Mixing layer depth [m]
       N/A  Mean hub u'w' Reynolds stress
       N/A  Mean hub u'v' Reynolds stress
       N/A  Mean hub v'w' Reynolds stress


Spatial Coherence Models:

       IEC  u-component coherence model
       IEC  v-component coherence model
       IEC  w-component coherence model
(   12.000, 0.353E-03)  u-component coherence parameters
(   12.000, 0.353E-03)  v-component coherence parameters
(   12.000, 0.353E-03)  w-component coherence parameters
       N/A  Coherence exponent


User-Defined Profiles:

  Height   Wind Speed   Horizontal Angle
   (m)        (m/s)          (deg)      
  ------   ----------   ----------------
  353.40      10.00         318.19
  334.80      10.00         321.14
  316.20      10.00         324.10
  297.60      10.00         327.05
  279.00      10.00         330.00
  260.40      10.00         332.95
  241.80      10.00         335.90
  223.20      10.00         338.86
  204.60      10.00         341.81
  186.00      10.00         344.76
  167.40      10.00         347.71
  148.80      10.00         350.67
  130.20      10.00         353.62
  111.60      10.00         356.57
   93.00      10.00         359.52
   74.40      10.00           2.48
   55.80      10.00           5.43
   37.20      10.00           8.38
   18.60      10.00          11.33
    0.00      10.00          14.29


You have requested that the following file(s) be generated:

   /kfs3/scratch/agupta/Projects/RL_Incubator/FinalRuns_Veer/Seed4/./FFSim_Seed4/Cond00_v10.0_PL0.12_TI7.5/Seed_7/Low.bts (AeroDyn/TurbSim full-field wind file)


Turbulence Simulation Scaling Parameter Summary:

   Turbulence model used                            =  IEC Kaimal
   Turbulence characteristic                        =  User-specified
   IEC standard                                     =  IEC 61400-1 Ed. 3: 2005
   Mean wind speed at hub height                    =   10.000 m/s
   Characteristic value of standard deviation       =    0.750 m/s
   Turbulence scale                                 =   42.000 m
   u-component integral scale                       =  340.200 m
   Coherency scale                                  =  340.200 m
   Characteristic value of hub turbulence intensity =    7.500%
   Gradient Richardson number                       =    0.000

   Wind profile type                                =  Linear interpolation of user-defined profile
   Equivalent power law exponent (upper rotor disk) =    0.000
   Mean shear across rotor disk                     =    0.000 (m/s)/m
   Assumed rotor diameter                           =  353.400 m
   Surface roughness length                         =    0.030 m

   Nyquist frequency of turbulent wind field        =    2.000 Hz

   Number of time steps in the FFT                  =     3600
   Number of time steps output                      =     3600
   Number of points simulated                       =     7527


Mean Flow Angles:

   Vertical   =   0.0 degrees
   Horizontal =   0.0 degrees

Mean Wind Speed Profile:

   Height    Wind Speed   Horizontal Angle  Vertical Angle  U-comp (X)   V-comp (Y)   W-comp (Z)
     (m)        (m/s)         (degrees)       (degrees)       (m/s)        (m/s)        (m/s)   
   ------    ----------   ----------------  --------------  ----------   ----------   ----------
    354.4       10.00          318.19            0.00          7.45        -6.67         0.00
    345.1       10.00          319.51            0.00          7.60        -6.49         0.00
    335.8       10.00          320.98            0.00          7.77        -6.30         0.00
    326.5       10.00          322.46            0.00          7.93        -6.09         0.00
    317.2       10.00          323.94            0.00          8.08        -5.89         0.00
    307.9       10.00          325.41            0.00          8.23        -5.68         0.00
    298.6       10.00          326.89            0.00          8.38        -5.46         0.00
    289.3       10.00          328.37            0.00          8.51        -5.25         0.00
    280.0       10.00          329.84            0.00          8.65        -5.02         0.00
    270.7       10.00          331.32            0.00          8.77        -4.80         0.00
    261.4       10.00          332.79            0.00          8.89        -4.57         0.00
    252.1       10.00          334.27            0.00          9.01        -4.34         0.00
    242.8       10.00          335.75            0.00          9.12        -4.11         0.00
    233.5       10.00          337.22            0.00          9.22        -3.87         0.00
    224.2       10.00          338.70            0.00          9.32        -3.63         0.00
    214.9       10.00          340.17            0.00          9.41        -3.39         0.00
    205.6       10.00          341.65            0.00          9.49        -3.15         0.00
    196.3       10.00          343.13            0.00          9.57        -2.90         0.00
    187.0       10.00          344.60            0.00          9.64        -2.66         0.00
    177.7       10.00          346.08            0.00          9.71        -2.41         0.00
    168.4       10.00          347.56            0.00          9.77        -2.15         0.00
    159.1       10.00          349.03            0.00          9.82        -1.90         0.00
    149.8       10.00          350.51            0.00          9.86        -1.65         0.00
    140.5       10.00          351.98            0.00          9.90        -1.39         0.00
    131.2       10.00          353.46            0.00          9.93        -1.14         0.00
    121.9       10.00          354.94            0.00          9.96        -0.88         0.00
    112.6       10.00          356.41            0.00          9.98        -0.63         0.00
    103.3       10.00          357.89            0.00          9.99        -0.37         0.00
     94.0       10.00          359.37            0.00         10.00        -0.11         0.00
     84.7       10.00          360.84            0.00         10.00         0.15         0.00
     75.4       10.00          362.32            0.00          9.99         0.40         0.00
     66.1       10.00            3.79            0.00          9.98         0.66         0.00
     56.8       10.00            5.27            0.00          9.96         0.92         0.00
     47.5       10.00            6.75            0.00          9.93         1.17         0.00
     38.2       10.00            8.22            0.00          9.90         1.43         0.00
     28.9       10.00            9.70            0.00          9.86         1.68         0.00
     19.6       10.00           11.17            0.00          9.81         1.94         0.00
     10.3       10.00           12.65            0.00          9.76         2.19         0.00
      1.0       10.00           14.13            0.00          9.70         2.44         0.00


Harvested Random Seeds after Generation of the Random Numbers:

    377667225 K 1
            0 K 2


Hub-Height Simulated Turbulence Statistical Summary:

   Type of Wind        Min (m/s)   Mean (m/s)    Max (m/s)  Sigma (m/s)       TI (%)
   ----------------    ---------   ----------    ---------  -----------       ------
   Longitudinal (u)         7.60        10.00        12.49        0.731        7.305
   Lateral (v)             -2.19         0.00         2.14        0.613        6.127
   Vertical (w)            -1.24         0.00         1.18        0.353        3.526
   U component              7.55         9.71        12.23        0.704        7.254
   V component             -4.66        -2.41        -0.47        0.643        6.624
   W component             -1.24         0.00         1.18        0.353        3.632
   Horizontal (U&V)         7.64        10.02        12.50        0.730        7.285
   Total                    7.64        10.03        12.50        0.729        7.275

                       Min Reynolds     Mean Reynolds    Max Reynolds    Correlation
   Product             Stress (m/s)^2   Stress (m/s)^2   Stress (m/s)^2  Coefficient
   ----------------    --------------   --------------   --------------  -----------
   u'w'                     -1.826            -0.013             1.565        -0.051
   u'v'                     -2.446            -0.062             1.933        -0.138
   v'w'                     -1.151            -0.004             1.166        -0.018


   Friction Velocity (Ustar)  =      0.114 m/s
   Maximum Instantaneous TKE  =      3.241 (m/s)^2
   Maximum Instantaneous CTKE =      1.274 (m/s)^2


Grid Point Variance Summary:

   Y-coord -892.80 -883.50 -874.20 -864.90 -855.60 -846.30 -837.00 -827.70 -818.40 -809.10 -799.80 -790.50 -781.20 -771.90 -762.60 -753.30 -744.00 -734.70 -725.40 -716.10 -706.80 -697.50 -688.20 -678.90 -669.60 -660.30 -651.00 -641.70 -632.40 -623.10 -613.80 -604.50 -595.20 -585.90 -576.60 -567.30 -558.00 -548.70 -539.40 -530.10 -520.80 -511.50 -502.20 -492.90 -483.60 -474.30 -465.00 -455.70 -446.40 -437.10 -427.80 -418.50 -409.20 -399.90 -390.60 -381.30 -372.00 -362.70 -353.40 -344.10 -334.80 -325.50 -316.20 -306.90 -297.60 -288.30 -279.00 -269.70 -260.40 -251.10 -241.80 -232.50 -223.20 -213.90 -204.60 -195.30 -186.00 -176.70 -167.40 -158.10 -148.80 -139.50 -130.20 -120.90 -111.60 -102.30  -93.00  -83.70  -74.40  -65.10  -55.80  -46.50  -37.20  -27.90  -18.60   -9.30    0.00    9.30   18.60   27.90   37.20   46.50   55.80   65.10   74.40   83.70   93.00  102.30  111.60  120.90  130.20  139.50  148.80  158.10  167.40  176.70  186.00  195.30  204.60  213.90  223.20  232.50  241.80  251.10  260.40  269.70  279.00  288.30  297.60  306.90  316.20  325.50  334.80  344.10  353.40  362.70  372.00  381.30  390.60  399.90  409.20  418.50  427.80  437.10  446.40  455.70  465.00  474.30  483.60  492.90  502.20  511.50  520.80  530.10  539.40  548.70  558.00  567.30  576.60  585.90  595.20  604.50  613.80  623.10  632.40  641.70  651.00  660.30  669.60  678.90  688.20  697.50  706.80  716.10  725.40  734.70  744.00  753.30  762.60  771.90  781.20  790.50  799.80  809.10  818.40  827.70  837.00  846.30  855.60  864.90  874.20  883.50  892.80

   Height   Standard deviation at grid points for the u component:
   354.40    0.625   0.599   0.597   0.636   0.655   0.690   0.711   0.743   0.729   0.696   0.685   0.647   0.654   0.697   0.725   0.707   0.740   0.694   0.681   0.690   0.705   0.717   0.716   0.746   0.696   0.692   0.677   0.671   0.702   0.688   0.705   0.741   0.708   0.660   0.706   0.677   0.695   0.730   0.705   0.656   0.687   0.624   0.633   0.664   0.618   0.652   0.689   0.741   0.679   0.681   0.694   0.648   0.624   0.607   0.612   0.631   0.640   0.605   0.597   0.585   0.609   0.614   0.650   0.660   0.716   0.673   0.664   0.657   0.714   0.703   0.695   0.713   0.780   0.692   0.702   0.711   0.736   0.741   0.701   0.696   0.673   0.687   0.688   0.634   0.655   0.663   0.718   0.712   0.686   0.667   0.693   0.757   0.719   0.749   0.702   0.683   0.766   0.758   0.809   0.800   0.781   0.792   0.792   0.731   0.703   0.670   0.606   0.650   0.652   0.672   0.710   0.721   0.699   0.706   0.693   0.674   0.709   0.697   0.648   0.589   0.646   0.644   0.591   0.566   0.634   0.596   0.567   0.635   0.639   0.677   0.708   0.743   0.774   0.701   0.735   0.683   0.653   0.657   0.670   0.652   0.670   0.676   0.624   0.637   0.628   0.668   0.616   0.646   0.628   0.542   0.571   0.557   0.578   0.571   0.600   0.621   0.659   0.629   0.627   0.628   0.590   0.560   0.573   0.622   0.653   0.650   0.649   0.645   0.650   0.680   0.679   0.669   0.646   0.709   0.779   0.795   0.810   0.792   0.761   0.777   0.844   0.819   0.808   0.827   0.879   0.885   0.883   0.817   0.864   0.806   0.796   0.779   0.798
   345.10    0.631   0.662   0.638   0.685   0.725   0.756   0.694   0.727   0.715   0.706   0.689   0.663   0.631   0.703   0.666   0.654   0.678   0.664   0.652   0.667   0.722   0.702   0.750   0.778   0.731   0.675   0.623   0.677   0.690   0.686   0.699   0.710   0.692   0.655   0.703   0.706   0.700   0.734   0.734   0.672   0.645   0.616   0.627   0.678   0.655   0.676   0.719   0.682   0.694   0.691   0.649   0.640   0.606   0.616   0.667   0.671   0.635   0.623   0.666   0.637   0.638   0.644   0.630   0.616   0.653   0.675   0.672   0.672   0.660   0.729   0.706   0.711   0.681   0.721   0.742   0.720   0.762   0.681   0.646   0.646   0.637   0.688   0.694   0.682   0.672   0.660   0.734   0.707   0.693   0.687   0.739   0.744   0.771   0.709   0.678   0.731   0.759   0.781   0.796   0.765   0.753   0.800   0.810   0.779   0.724   0.751   0.686   0.663   0.649   0.714   0.739   0.760   0.714   0.707   0.694   0.712   0.717   0.724   0.654   0.585   0.616   0.640   0.566   0.638   0.586   0.588   0.616   0.599   0.608   0.689   0.713   0.705   0.755   0.757   0.762   0.697   0.677   0.666   0.703   0.671   0.694   0.723   0.677   0.612   0.632   0.600   0.590   0.602   0.589   0.535   0.560   0.577   0.559   0.585   0.586   0.602   0.637   0.650   0.627   0.631   0.603   0.576   0.557   0.588   0.626   0.660   0.625   0.631   0.676   0.697   0.677   0.699   0.705   0.728   0.784   0.811   0.799   0.793   0.737   0.784   0.864   0.850   0.795   0.829   0.875   0.867   0.783   0.776   0.830   0.877   0.799   0.786   0.798
   335.80    0.659   0.656   0.687   0.733   0.745   0.774   0.738   0.746   0.726   0.715   0.693   0.680   0.652   0.703   0.726   0.690   0.616   0.648   0.665   0.640   0.705   0.702   0.703   0.734   0.722   0.694   0.662   0.669   0.660   0.675   0.683   0.665   0.629   0.648   0.628   0.638   0.632   0.664   0.727   0.663   0.629   0.619   0.631   0.633   0.623   0.691   0.745   0.711   0.663   0.663   0.642   0.593   0.619   0.620   0.647   0.690   0.681   0.643   0.639   0.671   0.657   0.638   0.666   0.660   0.671   0.630   0.677   0.673   0.692   0.690   0.666   0.687   0.715   0.683   0.740   0.745   0.750   0.678   0.637   0.637   0.656   0.714   0.668   0.714   0.671   0.660   0.708   0.755   0.741   0.737   0.777   0.795   0.786   0.737   0.713   0.770   0.803   0.826   0.802   0.809   0.772   0.799   0.828   0.792   0.730   0.746   0.669   0.626   0.633   0.691   0.712   0.791   0.751   0.719   0.693   0.716   0.702   0.712   0.669   0.609   0.629   0.659   0.636   0.669   0.634   0.614   0.637   0.656   0.644   0.691   0.716   0.714   0.720   0.723   0.690   0.696   0.670   0.685   0.681   0.710   0.658   0.660   0.677   0.606   0.612   0.618   0.596   0.584   0.562   0.530   0.551   0.532   0.518   0.594   0.583   0.615   0.603   0.615   0.637   0.599   0.597   0.562   0.594   0.591   0.643   0.633   0.628   0.634   0.650   0.677   0.692   0.669   0.704   0.744   0.763   0.806   0.785   0.783   0.757   0.808   0.867   0.871   0.808   0.806   0.816   0.790   0.774   0.765   0.847   0.791   0.842   0.799   0.839
   326.50    0.636   0.663   0.719   0.764   0.777   0.851   0.807   0.721   0.758   0.724   0.682   0.694   0.637   0.698   0.732   0.685   0.668   0.645   0.692   0.678   0.701   0.674   0.686   0.661   0.696   0.710   0.721   0.666   0.709   0.731   0.736   0.722   0.682   0.651   0.642   0.611   0.676   0.712   0.692   0.643   0.628   0.673   0.675   0.646   0.673   0.703   0.729   0.743   0.689   0.637   0.624   0.620   0.630   0.639   0.630   0.652   0.640   0.616   0.662   0.667   0.683   0.653   0.684   0.644   0.670   0.639   0.662   0.726   0.742   0.749   0.705   0.674   0.717   0.755   0.759   0.752   0.693   0.707   0.645   0.645   0.655   0.680   0.672   0.736   0.733   0.714   0.728   0.749   0.759   0.732   0.820   0.783   0.749   0.744   0.750   0.693   0.764   0.759   0.798   0.758   0.746   0.775   0.794   0.850   0.776   0.755   0.706   0.643   0.667   0.672   0.695   0.718   0.719   0.716   0.697   0.736   0.689   0.705   0.631   0.619   0.633   0.617   0.633   0.633   0.643   0.665   0.622   0.663   0.672   0.714   0.674   0.675   0.682   0.710   0.691   0.681   0.652   0.654   0.672   0.688   0.708   0.682   0.685   0.652   0.666   0.664   0.636   0.561   0.572   0.576   0.567   0.550   0.556   0.568   0.576   0.599   0.592   0.594   0.654   0.654   0.606   0.613   0.625   0.621   0.654   0.630   0.629   0.639   0.639   0.638   0.690   0.731   0.691   0.707   0.770   0.800   0.746   0.814   0.806   0.812   0.855   0.859   0.839   0.875   0.828   0.745   0.782   0.822   0.823   0.828   0.805   0.791   0.800
   317.20    0.654   0.656   0.704   0.751   0.774   0.793   0.743   0.749   0.797   0.725   0.716   0.686   0.690   0.715   0.738   0.681   0.674   0.684   0.683   0.722   0.683   0.704   0.668   0.666   0.644   0.679   0.716   0.678   0.664   0.762   0.755   0.729   0.667   0.631   0.654   0.620   0.713   0.746   0.702   0.659   0.660   0.645   0.721   0.712   0.695   0.722   0.740   0.727   0.690   0.649   0.624   0.643   0.655   0.681   0.646   0.679   0.656   0.602   0.657   0.704   0.680   0.657   0.656   0.637   0.646   0.654   0.687   0.685   0.729   0.764   0.783   0.724   0.730   0.717   0.758   0.772   0.727   0.688   0.642   0.605   0.631   0.675   0.674   0.710   0.712   0.699   0.739   0.718   0.765   0.794   0.814   0.708   0.714   0.738   0.718   0.691   0.711   0.755   0.737   0.772   0.777   0.746   0.730   0.756   0.752   0.749   0.723   0.699   0.619   0.633   0.660   0.625   0.695   0.655   0.643   0.632   0.699   0.753   0.669   0.660   0.624   0.602   0.636   0.655   0.654   0.636   0.643   0.628   0.661   0.670   0.681   0.707   0.731   0.708   0.680   0.642   0.640   0.632   0.653   0.694   0.727   0.684   0.660   0.661   0.687   0.647   0.631   0.612   0.603   0.578   0.526   0.557   0.562   0.573   0.550   0.596   0.618   0.643   0.660   0.638   0.609   0.565   0.614   0.627   0.624   0.637   0.677   0.660   0.682   0.679   0.680   0.723   0.695   0.707   0.768   0.768   0.729   0.807   0.833   0.854   0.849   0.889   0.897   0.895   0.809   0.811   0.762   0.791   0.788   0.798   0.797   0.773   0.769
   307.90    0.638   0.634   0.714   0.731   0.743   0.734   0.721   0.708   0.771   0.742   0.676   0.697   0.735   0.741   0.694   0.701   0.713   0.694   0.697   0.698   0.683   0.678   0.640   0.619   0.643   0.626   0.676   0.657   0.685   0.737   0.700   0.727   0.685   0.653   0.648   0.688   0.747   0.733   0.716   0.664   0.660   0.639   0.697   0.723   0.720   0.743   0.745   0.741   0.682   0.651   0.644   0.640   0.676   0.703   0.682   0.664   0.643   0.663   0.693   0.705   0.690   0.678   0.650   0.658   0.626   0.649   0.720   0.737   0.704   0.679   0.710   0.715   0.679   0.757   0.749   0.778   0.716   0.681   0.670   0.632   0.636   0.591   0.666   0.669   0.707   0.744   0.705   0.728   0.775   0.805   0.797   0.721   0.663   0.717   0.693   0.702   0.701   0.698   0.653   0.740   0.744   0.765   0.714   0.710   0.744   0.747   0.713   0.655   0.651   0.626   0.660   0.640   0.674   0.678   0.594   0.597   0.642   0.687   0.673   0.634   0.609   0.612   0.643   0.630   0.631   0.624   0.624   0.605   0.641   0.659   0.696   0.728   0.687   0.666   0.630   0.622   0.593   0.569   0.615   0.704   0.703   0.725   0.747   0.727   0.678   0.698   0.587   0.616   0.620   0.551   0.572   0.551   0.544   0.562   0.531   0.574   0.681   0.675   0.703   0.709   0.628   0.596   0.645   0.685   0.686   0.701   0.695   0.711   0.709   0.696   0.711   0.702   0.717   0.711   0.765   0.772   0.773   0.778   0.777   0.815   0.807   0.862   0.882   0.848   0.810   0.770   0.699   0.732   0.797   0.763   0.806   0.730   0.735
   298.60    0.661   0.632   0.685   0.739   0.723   0.732   0.704   0.684   0.723   0.746   0.736   0.748   0.709   0.708   0.709   0.697   0.689   0.703   0.721   0.697   0.659   0.655   0.670   0.651   0.617   0.621   0.633   0.656   0.705   0.696   0.691   0.662   0.671   0.684   0.645   0.706   0.713   0.733   0.739   0.701   0.649   0.633   0.640   0.668   0.729   0.709   0.706   0.724   0.712   0.703   0.651   0.616   0.619   0.647   0.649   0.643   0.613   0.639   0.692   0.664   0.688   0.698   0.701   0.655   0.638   0.713   0.748   0.742   0.699   0.668   0.657   0.700   0.658   0.692   0.750   0.734   0.680   0.681   0.663   0.637   0.654   0.648   0.669   0.680   0.693   0.724   0.711   0.712   0.727   0.769   0.764   0.728   0.701   0.718   0.751   0.718   0.688   0.724   0.750   0.770   0.755   0.736   0.733   0.669   0.640   0.689   0.697   0.652   0.667   0.641   0.651   0.674   0.670   0.647   0.637   0.602   0.631   0.637   0.636   0.623   0.593   0.599   0.635   0.654   0.647   0.626   0.659   0.628   0.668   0.653   0.640   0.667   0.683   0.640   0.613   0.540   0.546   0.550   0.551   0.627   0.646   0.650   0.712   0.721   0.698   0.672   0.643   0.650   0.613   0.548   0.593   0.537   0.507   0.552   0.601   0.577   0.681   0.699   0.682   0.708   0.646   0.616   0.633   0.650   0.668   0.696   0.684   0.666   0.681   0.679   0.709   0.699   0.660   0.750   0.698   0.757   0.782   0.770   0.756   0.786   0.797   0.843   0.820   0.792   0.822   0.731   0.758   0.751   0.736   0.746   0.761   0.717   0.702
   289.30    0.620   0.632   0.670   0.694   0.701   0.696   0.712   0.695   0.711   0.782   0.780   0.743   0.681   0.659   0.638   0.655   0.666   0.661   0.704   0.660   0.674   0.660   0.636   0.632   0.664   0.624   0.636   0.654   0.688   0.691   0.678   0.666   0.638   0.654   0.650   0.651   0.677   0.641   0.723   0.692   0.628   0.635   0.632   0.679   0.711   0.695   0.729   0.629   0.667   0.656   0.633   0.631   0.624   0.675   0.638   0.658   0.656   0.690   0.674   0.634   0.650   0.651   0.708   0.712   0.715   0.749   0.721   0.709   0.665   0.676   0.678   0.645   0.676   0.695   0.702   0.725   0.741   0.687   0.733   0.706   0.673   0.676   0.694   0.743   0.747   0.753   0.718   0.731   0.777   0.717   0.739   0.724   0.685   0.715   0.683   0.665   0.722   0.715   0.758   0.728   0.733   0.731   0.698   0.709   0.694   0.719   0.656   0.658   0.670   0.688   0.644   0.688   0.653   0.653   0.615   0.616   0.597   0.605   0.616   0.639   0.625   0.623   0.595   0.624   0.638   0.612   0.629   0.669   0.706   0.640   0.638   0.692   0.695   0.658   0.636   0.552   0.529   0.578   0.571   0.598   0.638   0.655   0.671   0.696   0.693   0.686   0.659   0.605   0.597   0.577   0.562   0.547   0.558   0.584   0.591   0.628   0.682   0.662   0.648   0.671   0.687   0.652   0.645   0.679   0.681   0.690   0.635   0.652   0.688   0.681   0.680   0.672   0.712   0.775   0.796   0.738   0.802   0.766   0.731   0.751   0.765   0.804   0.753   0.792   0.754   0.712   0.773   0.776   0.783   0.740   0.678   0.637   0.641
   280.00    0.614   0.616   0.630   0.667   0.708   0.688   0.708   0.655   0.738   0.742   0.748   0.703   0.641   0.640   0.661   0.661   0.641   0.666   0.605   0.619   0.660   0.612   0.596   0.669   0.656   0.674   0.702   0.718   0.683   0.686   0.689   0.667   0.650   0.603   0.625   0.700   0.663   0.690   0.664   0.693   0.640   0.635   0.678   0.647   0.677   0.696   0.661   0.678   0.655   0.664   0.651   0.663   0.669   0.645   0.676   0.699   0.669   0.655   0.691   0.670   0.687   0.690   0.728   0.742   0.731   0.763   0.689   0.726   0.681   0.689   0.699   0.713   0.643   0.695   0.673   0.719   0.746   0.737   0.723   0.758   0.701   0.762   0.741   0.786   0.749   0.743   0.680   0.719   0.748   0.771   0.717   0.690   0.742   0.741   0.698   0.631   0.711   0.746   0.752   0.729   0.713   0.706   0.733   0.747   0.745   0.666   0.632   0.681   0.653   0.658   0.636   0.696   0.654   0.661   0.594   0.607   0.625   0.632   0.602   0.616   0.654   0.620   0.566   0.624   0.610   0.605   0.639   0.696   0.656   0.661   0.664   0.680   0.671   0.682   0.647   0.563   0.573   0.601   0.661   0.671   0.675   0.654   0.652   0.714   0.708   0.710   0.646   0.647   0.599   0.613   0.595   0.560   0.559   0.534   0.583   0.637   0.702   0.635   0.658   0.685   0.718   0.668   0.709   0.689   0.685   0.643   0.613   0.643   0.649   0.659   0.669   0.661   0.742   0.735   0.815   0.797   0.778   0.772   0.773   0.758   0.799   0.809   0.810   0.833   0.786   0.762   0.773   0.802   0.731   0.693   0.662   0.633   0.608
   270.70    0.628   0.613   0.631   0.632   0.683   0.693   0.731   0.655   0.727   0.730   0.744   0.701   0.666   0.640   0.669   0.626   0.609   0.604   0.611   0.591   0.602   0.556   0.551   0.614   0.638   0.653   0.661   0.637   0.680   0.628   0.619   0.664   0.652   0.614   0.615   0.632   0.657   0.712   0.623   0.686   0.690   0.643   0.650   0.651   0.708   0.700   0.664   0.633   0.657   0.676   0.676   0.676   0.675   0.652   0.707   0.686   0.654   0.662   0.683   0.696   0.707   0.703   0.734   0.735   0.723   0.758   0.731   0.682   0.684   0.745   0.727   0.709   0.674   0.713   0.732   0.744   0.723   0.732   0.754   0.777   0.811   0.789   0.807   0.825   0.792   0.763   0.723   0.717   0.760   0.761   0.749   0.700   0.741   0.704   0.715   0.643   0.675   0.713   0.715   0.726   0.708   0.717   0.747   0.725   0.661   0.656   0.667   0.667   0.685   0.633   0.634   0.716   0.693   0.696   0.659   0.637   0.594   0.638   0.598   0.631   0.616   0.606   0.566   0.597   0.617   0.640   0.647   0.669   0.675   0.641   0.676   0.667   0.694   0.696   0.626   0.598   0.616   0.614   0.669   0.678   0.752   0.747   0.742   0.710   0.719   0.690   0.663   0.663   0.613   0.646   0.606   0.591   0.608   0.556   0.543   0.628   0.674   0.617   0.673   0.655   0.696   0.689   0.706   0.715   0.664   0.606   0.616   0.641   0.662   0.687   0.676   0.724   0.727   0.749   0.802   0.770   0.760   0.761   0.761   0.763   0.810   0.809   0.755   0.762   0.773   0.783   0.723   0.721   0.689   0.682   0.619   0.605   0.633
   261.40    0.679   0.671   0.638   0.671   0.712   0.752   0.761   0.717   0.740   0.707   0.706   0.688   0.674   0.628   0.598   0.625   0.607   0.595   0.593   0.585   0.590   0.598   0.573   0.606   0.614   0.641   0.597   0.615   0.603   0.569   0.567   0.620   0.630   0.596   0.581   0.629   0.658   0.647   0.641   0.662   0.702   0.640   0.647   0.659   0.691   0.734   0.718   0.672   0.687   0.667   0.627   0.649   0.624   0.693   0.724   0.710   0.705   0.669   0.713   0.748   0.701   0.666   0.729   0.748   0.757   0.726   0.722   0.721   0.722   0.722   0.716   0.704   0.732   0.756   0.781   0.786   0.773   0.769   0.735   0.767   0.816   0.837   0.807   0.850   0.810   0.798   0.714   0.740   0.733   0.752   0.705   0.706   0.715   0.661   0.674   0.626   0.613   0.629   0.677   0.684   0.703   0.672   0.699   0.756   0.769   0.739   0.696   0.703   0.717   0.686   0.672   0.706   0.692   0.653   0.627   0.637   0.626   0.628   0.624   0.600   0.611   0.616   0.619   0.611   0.627   0.663   0.667   0.705   0.672   0.654   0.672   0.728   0.745   0.710   0.708   0.671   0.604   0.624   0.706   0.757   0.776   0.765   0.689   0.711   0.754   0.731   0.676   0.679   0.659   0.596   0.631   0.585   0.587   0.564   0.613   0.588   0.676   0.693   0.706   0.684   0.716   0.718   0.669   0.656   0.670   0.612   0.636   0.690   0.662   0.683   0.714   0.715   0.702   0.718   0.787   0.797   0.801   0.784   0.754   0.743   0.767   0.745   0.675   0.682   0.705   0.670   0.720   0.706   0.667   0.696   0.680   0.687   0.673
   252.10    0.719   0.779   0.758   0.786   0.747   0.761   0.741   0.783   0.762   0.743   0.699   0.697   0.638   0.587   0.576   0.601   0.583   0.570   0.553   0.558   0.542   0.547   0.579   0.586   0.561   0.546   0.560   0.540   0.566   0.572   0.566   0.569   0.591   0.590   0.607   0.615   0.658   0.669   0.646   0.639   0.654   0.667   0.655   0.697   0.747   0.788   0.742   0.663   0.659   0.658   0.693   0.642   0.590   0.692   0.733   0.734   0.672   0.672   0.691   0.691   0.692   0.720   0.759   0.758   0.774   0.728   0.697   0.708   0.677   0.680   0.673   0.681   0.695   0.803   0.832   0.829   0.821   0.763   0.756   0.858   0.849   0.877   0.810   0.804   0.831   0.805   0.733   0.712   0.735   0.745   0.725   0.721   0.647   0.618   0.618   0.616   0.639   0.675   0.705   0.682   0.638   0.668   0.697   0.685   0.716   0.738   0.753   0.725   0.706   0.686   0.624   0.658   0.671   0.648   0.637   0.650   0.659   0.647   0.606   0.587   0.593   0.575   0.560   0.614   0.602   0.623   0.635   0.677   0.691   0.713   0.659   0.747   0.712   0.761   0.724   0.667   0.631   0.663   0.677   0.753   0.760   0.747   0.687   0.650   0.701   0.740   0.716   0.722   0.699   0.668   0.645   0.596   0.562   0.573   0.621   0.648   0.656   0.703   0.678   0.704   0.732   0.731   0.698   0.623   0.621   0.609   0.641   0.645   0.660   0.706   0.750   0.669   0.686   0.778   0.790   0.798   0.766   0.753   0.777   0.807   0.763   0.748   0.701   0.665   0.681   0.715   0.724   0.718   0.662   0.661   0.674   0.676   0.657
   242.80    0.758   0.765   0.805   0.792   0.733   0.713   0.750   0.728   0.741   0.702   0.646   0.694   0.631   0.573   0.597   0.608   0.598   0.584   0.558   0.528   0.573   0.526   0.558   0.572   0.555   0.549   0.542   0.551   0.540   0.554   0.575   0.545   0.562   0.603   0.587   0.569   0.616   0.622   0.650   0.624   0.668   0.677   0.735   0.716   0.738   0.764   0.763   0.701   0.685   0.648   0.607   0.680   0.651   0.687   0.689   0.718   0.723   0.686   0.713   0.723   0.741   0.731   0.735   0.732   0.745   0.698   0.704   0.711   0.670   0.690   0.678   0.666   0.733   0.791   0.836   0.861   0.814   0.778   0.844   0.822   0.872   0.836   0.827   0.794   0.796   0.799   0.713   0.703   0.686   0.728   0.756   0.722   0.707   0.604   0.642   0.630   0.658   0.646   0.686   0.692   0.726   0.682   0.692   0.700   0.704   0.703   0.710   0.698   0.657   0.686   0.681   0.678   0.666   0.658   0.611   0.634   0.675   0.674   0.630   0.637   0.625   0.617   0.595   0.580   0.616   0.579   0.629   0.679   0.728   0.704   0.762   0.748   0.722   0.722   0.704   0.711   0.693   0.710   0.680   0.751   0.741   0.743   0.734   0.692   0.736   0.746   0.735   0.744   0.708   0.663   0.656   0.634   0.569   0.601   0.573   0.624   0.637   0.685   0.668   0.689   0.687   0.678   0.655   0.623   0.649   0.656   0.661   0.605   0.654   0.711   0.699   0.705   0.707   0.762   0.779   0.755   0.717   0.751   0.771   0.752   0.703   0.700   0.725   0.687   0.643   0.693   0.716   0.718   0.709   0.669   0.614   0.651   0.629
   233.50    0.727   0.749   0.755   0.732   0.723   0.681   0.720   0.724   0.745   0.746   0.726   0.683   0.642   0.634   0.617   0.589   0.605   0.587   0.539   0.544   0.562   0.563   0.529   0.556   0.574   0.594   0.539   0.541   0.535   0.535   0.578   0.540   0.587   0.646   0.606   0.570   0.574   0.634   0.670   0.711   0.678   0.697   0.729   0.684   0.714   0.735   0.725   0.696   0.711   0.661   0.655   0.658   0.670   0.727   0.745   0.673   0.701   0.742   0.707   0.747   0.748   0.777   0.758   0.707   0.711   0.707   0.691   0.726   0.713   0.663   0.664   0.705   0.736   0.737   0.789   0.801   0.787   0.802   0.797   0.817   0.880   0.825   0.832   0.855   0.816   0.802   0.726   0.698   0.755   0.760   0.738   0.732   0.719   0.674   0.682   0.704   0.634   0.650   0.711   0.683   0.744   0.735   0.717   0.740   0.739   0.748   0.686   0.640   0.597   0.615   0.633   0.667   0.724   0.685   0.659   0.628   0.644   0.636   0.662   0.646   0.655   0.671   0.620   0.582   0.578   0.600   0.658   0.692   0.701   0.750   0.752   0.713   0.699   0.698   0.742   0.717   0.705   0.729   0.712   0.757   0.720   0.779   0.771   0.750   0.690   0.754   0.755   0.685   0.704   0.705   0.669   0.667   0.587   0.604   0.611   0.623   0.672   0.701   0.671   0.678   0.658   0.660   0.635   0.642   0.674   0.646   0.663   0.671   0.625   0.682   0.685   0.703   0.715   0.770   0.739   0.702   0.737   0.729   0.724   0.747   0.705   0.698   0.666   0.632   0.669   0.745   0.750   0.733   0.685   0.656   0.601   0.632   0.684
   224.20    0.728   0.712   0.717   0.767   0.681   0.650   0.679   0.730   0.697   0.752   0.742   0.678   0.633   0.644   0.661   0.605   0.575   0.546   0.515   0.529   0.529   0.564   0.581   0.600   0.582   0.613   0.553   0.568   0.540   0.554   0.561   0.584   0.640   0.671   0.610   0.603   0.594   0.635   0.665   0.657   0.689   0.735   0.701   0.701   0.723   0.705   0.648   0.670   0.697   0.703   0.644   0.721   0.725   0.703   0.740   0.709   0.724   0.729   0.757   0.723   0.795   0.796   0.820   0.723   0.704   0.737   0.762   0.821   0.796   0.741   0.695   0.701   0.750   0.729   0.774   0.764   0.774   0.784   0.778   0.816   0.850   0.858   0.835   0.823   0.823   0.789   0.717   0.669   0.733   0.750   0.732   0.720   0.728   0.694   0.742   0.721   0.621   0.656   0.645   0.682   0.683   0.738   0.722   0.791   0.799   0.789   0.740   0.640   0.657   0.608   0.638   0.694   0.672   0.689   0.661   0.622   0.608   0.631   0.627   0.623   0.670   0.669   0.651   0.610   0.622   0.587   0.606   0.663   0.712   0.701   0.714   0.720   0.705   0.697   0.692   0.665   0.729   0.722   0.743   0.770   0.755   0.777   0.789   0.767   0.718   0.746   0.749   0.746   0.711   0.711   0.709   0.706   0.712   0.647   0.616   0.652   0.661   0.654   0.664   0.663   0.606   0.599   0.615   0.635   0.657   0.650   0.709   0.691   0.645   0.662   0.653   0.678   0.682   0.701   0.759   0.735   0.762   0.741   0.708   0.741   0.681   0.658   0.652   0.697   0.701   0.742   0.718   0.704   0.650   0.624   0.614   0.615   0.668
   214.90    0.678   0.653   0.727   0.734   0.706   0.708   0.653   0.726   0.726   0.666   0.682   0.676   0.669   0.655   0.634   0.610   0.554   0.584   0.561   0.583   0.541   0.542   0.565   0.545   0.599   0.636   0.632   0.632   0.574   0.566   0.588   0.635   0.640   0.663   0.561   0.627   0.599   0.672   0.675   0.637   0.694   0.731   0.705   0.645   0.671   0.683   0.666   0.677   0.652   0.699   0.668   0.698   0.721   0.668   0.765   0.783   0.761   0.756   0.768   0.763   0.781   0.777   0.824   0.824   0.809   0.805   0.827   0.857   0.816   0.800   0.788   0.747   0.794   0.760   0.769   0.788   0.831   0.792   0.765   0.803   0.839   0.805   0.792   0.775   0.812   0.784   0.732   0.717   0.761   0.731   0.654   0.693   0.720   0.729   0.723   0.691   0.647   0.676   0.681   0.700   0.741   0.757   0.754   0.808   0.823   0.750   0.734   0.741   0.712   0.629   0.684   0.690   0.723   0.721   0.691   0.637   0.640   0.616   0.627   0.648   0.670   0.668   0.607   0.570   0.592   0.572   0.600   0.636   0.699   0.744   0.730   0.765   0.700   0.691   0.638   0.654   0.753   0.758   0.748   0.688   0.734   0.760   0.804   0.733   0.764   0.757   0.770   0.777   0.716   0.705   0.741   0.710   0.682   0.664   0.648   0.651   0.689   0.634   0.644   0.629   0.595   0.575   0.574   0.591   0.662   0.722   0.770   0.720   0.710   0.709   0.695   0.692   0.695   0.696   0.678   0.703   0.726   0.722   0.725   0.691   0.677   0.627   0.635   0.715   0.706   0.714   0.713   0.698   0.667   0.664   0.612   0.600   0.625
   205.60    0.652   0.682   0.690   0.716   0.750   0.735   0.699   0.731   0.723   0.703   0.689   0.674   0.661   0.627   0.630   0.623   0.623   0.582   0.603   0.634   0.571   0.587   0.585   0.610   0.607   0.620   0.605   0.579   0.571   0.569   0.577   0.598   0.627   0.629   0.608   0.591   0.637   0.620   0.654   0.644   0.656   0.675   0.677   0.615   0.651   0.667   0.699   0.722   0.704   0.652   0.633   0.689   0.692   0.695   0.751   0.755   0.791   0.774   0.779   0.792   0.787   0.835   0.823   0.843   0.816   0.819   0.825   0.822   0.816   0.843   0.751   0.765   0.755   0.764   0.792   0.757   0.795   0.835   0.794   0.831   0.809   0.829   0.809   0.796   0.762   0.729   0.710   0.696   0.740   0.730   0.654   0.724   0.746   0.703   0.702   0.717   0.672   0.674   0.674   0.711   0.772   0.753   0.767   0.767   0.754   0.732   0.747   0.769   0.753   0.731   0.719   0.703   0.770   0.771   0.747   0.634   0.640   0.661   0.627   0.656   0.641   0.646   0.600   0.601   0.645   0.626   0.655   0.658   0.724   0.727   0.704   0.744   0.742   0.735   0.669   0.720   0.752   0.721   0.741   0.695   0.697   0.728   0.758   0.779   0.780   0.785   0.823   0.790   0.734   0.719   0.732   0.716   0.735   0.704   0.706   0.691   0.672   0.619   0.595   0.582   0.607   0.573   0.635   0.684   0.712   0.776   0.798   0.755   0.764   0.745   0.766   0.726   0.701   0.711   0.670   0.668   0.724   0.729   0.739   0.730   0.695   0.625   0.652   0.736   0.646   0.692   0.673   0.659   0.661   0.695   0.641   0.622   0.615
   196.30    0.619   0.661   0.706   0.759   0.744   0.753   0.770   0.776   0.754   0.715   0.724   0.678   0.618   0.629   0.635   0.613   0.611   0.625   0.646   0.604   0.621   0.617   0.610   0.591   0.597   0.616   0.588   0.554   0.567   0.564   0.607   0.623   0.620   0.637   0.597   0.587   0.600   0.590   0.605   0.639   0.706   0.734   0.673   0.625   0.650   0.634   0.706   0.758   0.686   0.700   0.653   0.677   0.690   0.721   0.741   0.784   0.737   0.783   0.813   0.817   0.832   0.829   0.879   0.850   0.847   0.861   0.875   0.842   0.833   0.839   0.793   0.751   0.783   0.832   0.832   0.828   0.822   0.818   0.767   0.846   0.882   0.828   0.805   0.772   0.752   0.759   0.734   0.718   0.752   0.751   0.709   0.704   0.715   0.737   0.682   0.746   0.737   0.631   0.663   0.675   0.754   0.723   0.739   0.787   0.718   0.718   0.768   0.771   0.783   0.783   0.749   0.787   0.813   0.790   0.716   0.671   0.651   0.610   0.595   0.612   0.601   0.630   0.643   0.635   0.701   0.731   0.639   0.649   0.733   0.763   0.733   0.726   0.732   0.735   0.723   0.712   0.745   0.710   0.706   0.734   0.681   0.711   0.731   0.781   0.788   0.778   0.793   0.741   0.798   0.727   0.723   0.784   0.752   0.746   0.684   0.679   0.635   0.595   0.610   0.654   0.636   0.644   0.716   0.765   0.803   0.805   0.760   0.751   0.737   0.791   0.784   0.752   0.751   0.749   0.672   0.682   0.692   0.729   0.714   0.708   0.672   0.667   0.657   0.689   0.657   0.673   0.703   0.724   0.729   0.692   0.632   0.648   0.659
   187.00    0.677   0.651   0.719   0.755   0.797   0.781   0.810   0.793   0.818   0.728   0.706   0.655   0.628   0.638   0.640   0.665   0.644   0.663   0.656   0.619   0.620   0.624   0.586   0.600   0.609   0.564   0.555   0.571   0.564   0.583   0.632   0.622   0.624   0.609   0.611   0.594   0.600   0.580   0.599   0.639   0.659   0.707   0.672   0.690   0.699   0.662   0.727   0.775   0.738   0.712   0.665   0.684   0.697   0.713   0.718   0.752   0.717   0.729   0.793   0.808   0.835   0.867   0.819   0.866   0.848   0.892   0.834   0.843   0.841   0.837   0.801   0.850   0.855   0.869   0.885   0.853   0.780   0.845   0.821   0.840   0.826   0.852   0.878   0.854   0.801   0.780   0.759   0.729   0.789   0.724   0.717   0.691   0.684   0.724   0.720   0.767   0.712   0.661   0.668   0.676   0.712   0.753   0.730   0.745   0.708   0.710   0.663   0.710   0.779   0.806   0.799   0.757   0.781   0.775   0.735   0.666   0.653   0.592   0.590   0.584   0.609   0.615   0.653   0.651   0.704   0.741   0.702   0.655   0.693   0.735   0.738   0.742   0.690   0.731   0.713   0.717   0.708   0.663   0.705   0.697   0.684   0.693   0.699   0.747   0.744   0.698   0.717   0.734   0.765   0.760   0.739   0.769   0.786   0.734   0.715   0.660   0.636   0.624   0.622   0.618   0.677   0.719   0.765   0.753   0.746   0.748   0.762   0.773   0.767   0.741   0.783   0.796   0.797   0.704   0.723   0.704   0.663   0.697   0.669   0.667   0.661   0.646   0.659   0.689   0.638   0.662   0.701   0.697   0.707   0.693   0.642   0.684   0.666
   177.70    0.667   0.680   0.705   0.767   0.744   0.745   0.756   0.789   0.744   0.748   0.707   0.672   0.628   0.647   0.658   0.648   0.674   0.626   0.633   0.580   0.625   0.678   0.652   0.649   0.599   0.604   0.609   0.587   0.630   0.584   0.621   0.603   0.600   0.628   0.602   0.617   0.623   0.567   0.582   0.667   0.678   0.700   0.695   0.691   0.749   0.742   0.758   0.729   0.706   0.668   0.667   0.683   0.685   0.664   0.734   0.709   0.681   0.695   0.725   0.782   0.821   0.820   0.826   0.814   0.845   0.868   0.858   0.849   0.845   0.856   0.892   0.873   0.911   0.871   0.901   0.839   0.864   0.795   0.846   0.859   0.889   0.842   0.849   0.851   0.847   0.818   0.798   0.775   0.796   0.813   0.775   0.697   0.678   0.726   0.721   0.690   0.731   0.670   0.641   0.648   0.698   0.712   0.705   0.749   0.708   0.663   0.676   0.738   0.754   0.749   0.776   0.820   0.769   0.801   0.750   0.701   0.653   0.619   0.581   0.583   0.631   0.646   0.655   0.650   0.726   0.690   0.705   0.692   0.712   0.683   0.700   0.707   0.674   0.720   0.720   0.692   0.697   0.644   0.699   0.688   0.703   0.677   0.703   0.704   0.673   0.696   0.695   0.713   0.752   0.778   0.769   0.751   0.761   0.740   0.690   0.655   0.673   0.644   0.645   0.642   0.690   0.703   0.745   0.784   0.767   0.733   0.782   0.731   0.714   0.743   0.727   0.737   0.758   0.721   0.694   0.671   0.614   0.606   0.679   0.679   0.657   0.704   0.652   0.631   0.673   0.674   0.674   0.664   0.651   0.667   0.674   0.691   0.674
   168.40    0.610   0.655   0.697   0.730   0.752   0.752   0.749   0.744   0.735   0.690   0.705   0.661   0.632   0.604   0.650   0.618   0.648   0.592   0.599   0.613   0.630   0.663   0.716   0.651   0.595   0.632   0.638   0.619   0.640   0.599   0.618   0.612   0.611   0.648   0.642   0.651   0.598   0.594   0.631   0.674   0.691   0.744   0.676   0.711   0.725   0.775   0.775   0.770   0.729   0.710   0.693   0.662   0.659   0.702   0.713   0.770   0.753   0.754   0.706   0.746   0.770   0.787   0.809   0.798   0.771   0.800   0.887   0.884   0.873   0.901   0.917   0.905   0.873   0.889   0.888   0.828   0.819   0.801   0.845   0.851   0.860   0.846   0.784   0.793   0.747   0.821   0.842   0.768   0.811   0.790   0.730   0.704   0.753   0.707   0.705   0.686   0.744   0.667   0.675   0.690   0.644   0.697   0.708   0.758   0.712   0.653   0.716   0.741   0.756   0.708   0.731   0.783   0.722   0.723   0.734   0.698   0.650   0.630   0.582   0.586   0.647   0.663   0.610   0.630   0.675   0.683   0.722   0.698   0.712   0.730   0.717   0.708   0.663   0.700   0.728   0.691   0.714   0.654   0.687   0.727   0.727   0.703   0.709   0.667   0.685   0.757   0.703   0.693   0.742   0.760   0.705   0.705   0.708   0.679   0.669   0.669   0.705   0.672   0.681   0.686   0.693   0.705   0.717   0.737   0.727   0.720   0.738   0.730   0.756   0.772   0.733   0.686   0.718   0.675   0.641   0.633   0.627   0.647   0.709   0.674   0.677   0.669   0.717   0.662   0.641   0.633   0.611   0.665   0.677   0.635   0.635   0.691   0.704
   159.10    0.649   0.669   0.726   0.705   0.723   0.769   0.718   0.707   0.674   0.663   0.637   0.638   0.622   0.626   0.616   0.582   0.601   0.594   0.594   0.630   0.600   0.663   0.667   0.669   0.588   0.605   0.593   0.589   0.591   0.603   0.582   0.628   0.589   0.673   0.680   0.637   0.544   0.640   0.635   0.633   0.723   0.690   0.700   0.710   0.703   0.735   0.711   0.722   0.719   0.753   0.719   0.714   0.671   0.686   0.658   0.717   0.772   0.718   0.748   0.765   0.756   0.766   0.766   0.784   0.781   0.788   0.833   0.876   0.867   0.881   0.870   0.869   0.861   0.874   0.844   0.860   0.856   0.857   0.866   0.858   0.858   0.817   0.720   0.760   0.731   0.731   0.767   0.767   0.765   0.761   0.732   0.757   0.754   0.758   0.708   0.675   0.715   0.676   0.695   0.685   0.687   0.713   0.685   0.705   0.698   0.726   0.728   0.794   0.762   0.719   0.707   0.750   0.734   0.722   0.727   0.681   0.687   0.639   0.597   0.586   0.650   0.681   0.628   0.589   0.615   0.626   0.690   0.700   0.709   0.702   0.691   0.674   0.699   0.766   0.733   0.721   0.697   0.699   0.714   0.694   0.766   0.781   0.703   0.700   0.710   0.732   0.718   0.697   0.740   0.738   0.747   0.724   0.745   0.699   0.664   0.682   0.679   0.623   0.649   0.656   0.663   0.684   0.681   0.720   0.732   0.763   0.724   0.726   0.737   0.751   0.729   0.739   0.710   0.681   0.657   0.653   0.648   0.686   0.706   0.679   0.659   0.701   0.754   0.706   0.661   0.649   0.612   0.628   0.646   0.654   0.621   0.647   0.709
   149.80    0.645   0.698   0.734   0.728   0.751   0.699   0.730   0.670   0.672   0.678   0.619   0.631   0.622   0.632   0.621   0.593   0.600   0.591   0.604   0.599   0.595   0.649   0.677   0.631   0.625   0.610   0.591   0.592   0.562   0.602   0.636   0.632   0.683   0.683   0.647   0.629   0.613   0.622   0.664   0.680   0.685   0.680   0.721   0.745   0.773   0.762   0.743   0.781   0.848   0.809   0.753   0.736   0.712   0.724   0.665   0.738   0.806   0.767   0.738   0.728   0.773   0.784   0.769   0.707   0.732   0.776   0.817   0.864   0.879   0.844   0.919   0.878   0.846   0.835   0.824   0.887   0.926   0.864   0.841   0.816   0.843   0.803   0.758   0.777   0.707   0.684   0.694   0.713   0.758   0.714   0.688   0.725   0.777   0.795   0.725   0.664   0.702   0.640   0.673   0.667   0.695   0.711   0.696   0.701   0.712   0.739   0.782   0.786   0.724   0.697   0.688   0.694   0.708   0.700   0.721   0.701   0.668   0.625   0.595   0.624   0.649   0.620   0.642   0.639   0.654   0.629   0.666   0.660   0.729   0.713   0.686   0.709   0.749   0.754   0.751   0.715   0.735   0.722   0.782   0.748   0.781   0.706   0.716   0.732   0.733   0.715   0.707   0.719   0.753   0.702   0.744   0.768   0.716   0.714   0.688   0.686   0.658   0.618   0.647   0.663   0.698   0.708   0.719   0.789   0.767   0.763   0.783   0.716   0.735   0.731   0.739   0.736   0.681   0.683   0.685   0.689   0.667   0.705   0.738   0.712   0.663   0.694   0.713   0.684   0.658   0.692   0.643   0.641   0.646   0.660   0.691   0.674   0.676
   140.50    0.675   0.678   0.753   0.690   0.725   0.745   0.689   0.671   0.686   0.687   0.594   0.621   0.589   0.654   0.645   0.636   0.589   0.651   0.646   0.645   0.655   0.675   0.647   0.606   0.636   0.656   0.613   0.581   0.592   0.595   0.642   0.606   0.663   0.676   0.601   0.578   0.646   0.665   0.699   0.740   0.750   0.714   0.711   0.736   0.752   0.749   0.783   0.780   0.796   0.796   0.779   0.753   0.708   0.689   0.668   0.694   0.741   0.782   0.720   0.732   0.812   0.792   0.824   0.774   0.739   0.752   0.783   0.814   0.811   0.835   0.869   0.895   0.896   0.859   0.876   0.896   0.899   0.820   0.818   0.814   0.822   0.853   0.818   0.824   0.742   0.687   0.689   0.738   0.707   0.750   0.721   0.669   0.741   0.724   0.758   0.737   0.652   0.643   0.656   0.652   0.671   0.691   0.721   0.711   0.724   0.769   0.787   0.745   0.781   0.790   0.716   0.693   0.699   0.700   0.732   0.682   0.671   0.598   0.580   0.572   0.575   0.599   0.647   0.638   0.601   0.660   0.627   0.714   0.699   0.739   0.745   0.748   0.786   0.739   0.768   0.747   0.746   0.769   0.827   0.785   0.774   0.692   0.706   0.689   0.732   0.702   0.688   0.679   0.708   0.696   0.763   0.761   0.787   0.771   0.703   0.706   0.664   0.663   0.646   0.693   0.692   0.707   0.703   0.736   0.768   0.798   0.776   0.712   0.737   0.707   0.721   0.686   0.701   0.637   0.676   0.695   0.690   0.732   0.743   0.719   0.694   0.703   0.706   0.745   0.732   0.680   0.670   0.670   0.680   0.650   0.730   0.715   0.671
   131.20    0.725   0.711   0.723   0.723   0.709   0.708   0.702   0.702   0.713   0.701   0.602   0.631   0.580   0.622   0.672   0.705   0.650   0.690   0.707   0.698   0.708   0.718   0.696   0.648   0.630   0.622   0.577   0.558   0.596   0.586   0.632   0.619   0.646   0.662   0.638   0.608   0.661   0.682   0.704   0.740   0.746   0.740   0.772   0.764   0.820   0.761   0.789   0.793   0.776   0.778   0.731   0.716   0.701   0.678   0.620   0.674   0.710   0.782   0.768   0.735   0.818   0.721   0.747   0.782   0.806   0.797   0.874   0.813   0.819   0.828   0.819   0.806   0.857   0.853   0.842   0.861   0.839   0.821   0.805   0.849   0.838   0.833   0.792   0.791   0.766   0.717   0.701   0.749   0.712   0.709   0.724   0.695   0.774   0.774   0.718   0.692   0.668   0.634   0.608   0.648   0.697   0.670   0.737   0.767   0.766   0.751   0.774   0.776   0.731   0.768   0.756   0.722   0.690   0.655   0.680   0.705   0.650   0.637   0.616   0.546   0.594   0.580   0.573   0.616   0.615   0.622   0.651   0.663   0.736   0.741   0.754   0.742   0.769   0.737   0.723   0.753   0.757   0.757   0.814   0.809   0.806   0.731   0.687   0.713   0.746   0.763   0.693   0.673   0.729   0.734   0.760   0.729   0.739   0.742   0.687   0.704   0.668   0.664   0.660   0.671   0.664   0.669   0.694   0.671   0.698   0.734   0.749   0.733   0.752   0.751   0.734   0.709   0.718   0.674   0.693   0.643   0.704   0.724   0.751   0.744   0.678   0.714   0.705   0.731   0.695   0.625   0.657   0.637   0.686   0.680   0.677   0.648   0.689
   121.90    0.674   0.707   0.701   0.753   0.707   0.723   0.725   0.738   0.674   0.686   0.637   0.631   0.647   0.604   0.617   0.654   0.701   0.729   0.739   0.728   0.781   0.791   0.716   0.681   0.611   0.594   0.601   0.571   0.589   0.614   0.568   0.595   0.618   0.610   0.635   0.680   0.703   0.729   0.734   0.706   0.787   0.781   0.844   0.790   0.829   0.830   0.837   0.860   0.786   0.813   0.763   0.782   0.782   0.700   0.707   0.727   0.748   0.756   0.707   0.755   0.760   0.729   0.728   0.723   0.811   0.858   0.872   0.880   0.837   0.823   0.787   0.768   0.804   0.881   0.850   0.848   0.780   0.820   0.802   0.829   0.856   0.801   0.825   0.835   0.782   0.784   0.720   0.737   0.712   0.690   0.666   0.699   0.735   0.743   0.709   0.704   0.676   0.613   0.611   0.653   0.645   0.668   0.710   0.742   0.729   0.777   0.765   0.701   0.719   0.766   0.709   0.632   0.659   0.617   0.686   0.707   0.643   0.622   0.583   0.570   0.559   0.598   0.554   0.556   0.595   0.622   0.650   0.625   0.701   0.720   0.717   0.727   0.716   0.755   0.742   0.720   0.808   0.778   0.751   0.751   0.765   0.783   0.735   0.798   0.785   0.715   0.686   0.690   0.730   0.762   0.766   0.673   0.685   0.677   0.681   0.705   0.695   0.657   0.652   0.646   0.643   0.682   0.657   0.681   0.665   0.694   0.683   0.690   0.731   0.721   0.742   0.754   0.731   0.714   0.668   0.668   0.705   0.745   0.736   0.722   0.706   0.704   0.717   0.724   0.687   0.684   0.683   0.622   0.636   0.663   0.668   0.669   0.697
   112.60    0.687   0.724   0.727   0.727   0.730   0.763   0.723   0.757   0.727   0.733   0.651   0.649   0.659   0.597   0.646   0.663   0.704   0.734   0.737   0.796   0.762   0.761   0.757   0.666   0.613   0.587   0.624   0.598   0.602   0.606   0.601   0.619   0.639   0.649   0.676   0.683   0.684   0.675   0.740   0.745   0.772   0.783   0.810   0.812   0.811   0.838   0.848   0.881   0.844   0.774   0.770   0.817   0.800   0.741   0.743   0.751   0.742   0.653   0.710   0.725   0.766   0.770   0.783   0.747   0.771   0.824   0.853   0.828   0.787   0.785   0.747   0.774   0.802   0.824   0.830   0.838   0.831   0.873   0.851   0.863   0.838   0.870   0.897   0.887   0.803   0.757   0.731   0.716   0.722   0.727   0.658   0.687   0.708   0.763   0.757   0.750   0.668   0.633   0.648   0.670   0.629   0.641   0.675   0.669   0.680   0.721   0.717   0.703   0.690   0.707   0.709   0.634   0.677   0.642   0.658   0.638   0.650   0.643   0.632   0.609   0.564   0.584   0.585   0.555   0.581   0.628   0.645   0.644   0.687   0.722   0.766   0.708   0.740   0.736   0.766   0.771   0.770   0.712   0.769   0.746   0.787   0.763   0.748   0.740   0.727   0.757   0.681   0.727   0.701   0.731   0.713   0.711   0.697   0.654   0.665   0.663   0.685   0.682   0.636   0.626   0.675   0.649   0.687   0.662   0.694   0.726   0.691   0.689   0.697   0.714   0.707   0.685   0.682   0.683   0.677   0.700   0.698   0.708   0.716   0.725   0.714   0.728   0.717   0.724   0.662   0.661   0.647   0.642   0.576   0.628   0.656   0.634   0.704
   103.30    0.673   0.698   0.712   0.683   0.744   0.809   0.737   0.752   0.711   0.716   0.703   0.677   0.693   0.659   0.658   0.676   0.733   0.768   0.739   0.789   0.767   0.729   0.719   0.698   0.645   0.648   0.604   0.630   0.598   0.628   0.635   0.627   0.625   0.672   0.718   0.710   0.686   0.717   0.767   0.783   0.833   0.842   0.834   0.787   0.764   0.771   0.808   0.858   0.843   0.828   0.811   0.847   0.829   0.827   0.778   0.722   0.690   0.708   0.748   0.803   0.803   0.793   0.803   0.813   0.748   0.773   0.796   0.735   0.771   0.774   0.785   0.767   0.807   0.780   0.830   0.819   0.820   0.853   0.844   0.870   0.859   0.842   0.884   0.851   0.838   0.764   0.726   0.725   0.748   0.725   0.667   0.732   0.726   0.714   0.701   0.708   0.683   0.610   0.610   0.654   0.655   0.645   0.653   0.608   0.634   0.673   0.693   0.709   0.699   0.695   0.702   0.728   0.689   0.662   0.639   0.659   0.636   0.629   0.660   0.650   0.594   0.583   0.556   0.581   0.580   0.614   0.662   0.687   0.740   0.769   0.772   0.745   0.710   0.720   0.728   0.721   0.733   0.761   0.755   0.772   0.785   0.758   0.749   0.748   0.774   0.740   0.729   0.702   0.721   0.726   0.707   0.712   0.764   0.711   0.652   0.638   0.649   0.646   0.647   0.660   0.661   0.687   0.686   0.698   0.733   0.723   0.706   0.650   0.658   0.667   0.665   0.639   0.645   0.669   0.718   0.637   0.654   0.656   0.700   0.721   0.728   0.736   0.722   0.721   0.661   0.647   0.612   0.632   0.635   0.632   0.660   0.647   0.670
    94.00    0.698   0.680   0.674   0.716   0.779   0.765   0.773   0.774   0.737   0.725   0.735   0.683   0.677   0.685   0.674   0.707   0.762   0.796   0.743   0.809   0.755   0.703   0.703   0.681   0.620   0.662   0.635   0.644   0.635   0.661   0.624   0.586   0.607   0.642   0.671   0.684   0.700   0.715   0.784   0.855   0.832   0.858   0.889   0.803   0.795   0.806   0.778   0.834   0.818   0.848   0.844   0.854   0.850   0.869   0.821   0.789   0.790   0.733   0.742   0.768   0.780   0.789   0.781   0.796   0.785   0.776   0.722   0.705   0.694   0.749   0.802   0.780   0.758   0.765   0.795   0.844   0.861   0.848   0.893   0.858   0.823   0.829   0.827   0.831   0.738   0.731   0.720   0.680   0.733   0.678   0.691   0.734   0.702   0.736   0.699   0.670   0.635   0.628   0.573   0.623   0.664   0.693   0.653   0.687   0.639   0.702   0.682   0.657   0.700   0.703   0.706   0.696   0.627   0.656   0.662   0.645   0.638   0.642   0.620   0.648   0.643   0.580   0.583   0.597   0.621   0.643   0.710   0.656   0.689   0.755   0.763   0.693   0.667   0.704   0.708   0.784   0.789   0.796   0.795   0.783   0.778   0.769   0.730   0.718   0.735   0.732   0.739   0.732   0.738   0.699   0.699   0.698   0.742   0.703   0.709   0.647   0.664   0.659   0.662   0.679   0.665   0.724   0.692   0.682   0.726   0.707   0.710   0.663   0.661   0.669   0.656   0.630   0.634   0.659   0.720   0.657   0.654   0.654   0.638   0.694   0.706   0.751   0.684   0.686   0.635   0.670   0.683   0.670   0.683   0.655   0.650   0.634   0.682
    84.70    0.660   0.709   0.722   0.679   0.714   0.699   0.726   0.712   0.708   0.707   0.694   0.690   0.631   0.678   0.705   0.684   0.756   0.763   0.798   0.794   0.689   0.704   0.741   0.701   0.620   0.646   0.681   0.676   0.651   0.675   0.638   0.596   0.585   0.594   0.664   0.709   0.765   0.801   0.809   0.829   0.884   0.896   0.854   0.885   0.864   0.833   0.822   0.809   0.813   0.857   0.874   0.848   0.855   0.885   0.879   0.839   0.753   0.723   0.707   0.736   0.736   0.759   0.786   0.800   0.816   0.764   0.771   0.717   0.736   0.752   0.781   0.764   0.779   0.756   0.764   0.745   0.780   0.852   0.854   0.822   0.789   0.773   0.738   0.775   0.780   0.765   0.708   0.708   0.711   0.656   0.687   0.687   0.671   0.726   0.758   0.693   0.636   0.633   0.671   0.626   0.671   0.703   0.705   0.643   0.685   0.686   0.632   0.670   0.643   0.636   0.665   0.670   0.662   0.659   0.691   0.675   0.688   0.649   0.659   0.672   0.625   0.618   0.640   0.647   0.688   0.666   0.638   0.642   0.700   0.751   0.745   0.707   0.690   0.742   0.786   0.807   0.791   0.781   0.768   0.765   0.799   0.754   0.722   0.711   0.739   0.721   0.702   0.676   0.687   0.654   0.705   0.699   0.721   0.665   0.695   0.650   0.610   0.640   0.633   0.636   0.683   0.727   0.682   0.721   0.681   0.707   0.737   0.699   0.670   0.683   0.645   0.632   0.634   0.687   0.669   0.664   0.674   0.677   0.699   0.659   0.668   0.705   0.640   0.665   0.628   0.658   0.652   0.731   0.715   0.776   0.743   0.680   0.656
    75.40    0.681   0.731   0.662   0.671   0.711   0.717   0.728   0.689   0.721   0.671   0.665   0.674   0.651   0.681   0.679   0.688   0.732   0.759   0.790   0.730   0.747   0.712   0.700   0.652   0.678   0.674   0.702   0.679   0.676   0.704   0.669   0.624   0.583   0.591   0.744   0.738   0.770   0.802   0.838   0.845   0.899   0.941   0.946   0.953   0.861   0.865   0.831   0.763   0.813   0.819   0.817   0.796   0.823   0.793   0.836   0.823   0.754   0.740   0.715   0.724   0.758   0.779   0.821   0.812   0.773   0.825   0.789   0.739   0.706   0.687   0.791   0.725   0.740   0.752   0.707   0.729   0.787   0.819   0.838   0.828   0.819   0.759   0.759   0.741   0.734   0.740   0.717   0.675   0.650   0.700   0.666   0.651   0.639   0.696   0.719   0.721   0.690   0.623   0.639   0.657   0.663   0.662   0.673   0.664   0.632   0.654   0.674   0.666   0.678   0.687   0.634   0.651   0.672   0.644   0.662   0.658   0.665   0.697   0.648   0.653   0.651   0.651   0.662   0.685   0.652   0.630   0.643   0.666   0.619   0.706   0.713   0.731   0.659   0.707   0.756   0.817   0.804   0.793   0.755   0.733   0.723   0.723   0.717   0.706   0.669   0.692   0.657   0.614   0.666   0.694   0.679   0.696   0.657   0.680   0.635   0.617   0.630   0.601   0.619   0.615   0.665   0.711   0.671   0.699   0.708   0.718   0.709   0.730   0.708   0.692   0.705   0.680   0.678   0.685   0.693   0.674   0.684   0.657   0.692   0.634   0.638   0.673   0.655   0.644   0.699   0.719   0.712   0.677   0.716   0.752   0.757   0.732   0.673
    66.10    0.671   0.679   0.635   0.651   0.651   0.688   0.649   0.686   0.671   0.678   0.698   0.701   0.700   0.690   0.711   0.744   0.708   0.701   0.646   0.736   0.701   0.680   0.686   0.656   0.724   0.679   0.685   0.693   0.705   0.730   0.674   0.658   0.651   0.721   0.780   0.847   0.839   0.832   0.867   0.840   0.865   0.933   0.912   0.895   0.898   0.846   0.798   0.784   0.782   0.811   0.791   0.850   0.821   0.812   0.829   0.784   0.746   0.752   0.698   0.700   0.707   0.681   0.776   0.785   0.755   0.751   0.725   0.762   0.706   0.740   0.742   0.750   0.715   0.696   0.731   0.719   0.798   0.794   0.827   0.770   0.784   0.791   0.768   0.717   0.723   0.728   0.744   0.646   0.675   0.691   0.666   0.643   0.622   0.637   0.736   0.709   0.705   0.658   0.638   0.649   0.629   0.613   0.643   0.647   0.668   0.686   0.666   0.651   0.671   0.655   0.658   0.637   0.646   0.659   0.639   0.651   0.649   0.611   0.658   0.685   0.655   0.657   0.640   0.669   0.635   0.603   0.662   0.633   0.675   0.713   0.702   0.718   0.728   0.750   0.662   0.724   0.777   0.810   0.788   0.724   0.696   0.648   0.663   0.690   0.680   0.647   0.695   0.644   0.632   0.665   0.665   0.665   0.640   0.684   0.622   0.584   0.576   0.604   0.599   0.622   0.609   0.664   0.687   0.687   0.710   0.746   0.670   0.678   0.708   0.700   0.680   0.647   0.685   0.663   0.664   0.656   0.669   0.650   0.704   0.691   0.663   0.674   0.644   0.655   0.716   0.751   0.748   0.748   0.739   0.734   0.732   0.724   0.731
    56.80    0.609   0.659   0.644   0.668   0.618   0.641   0.663   0.694   0.674   0.671   0.705   0.701   0.695   0.696   0.691   0.722   0.680   0.691   0.664   0.676   0.677   0.658   0.661   0.673   0.670   0.672   0.703   0.693   0.692   0.671   0.713   0.740   0.753   0.745   0.864   0.838   0.851   0.843   0.865   0.840   0.860   0.888   0.886   0.895   0.868   0.856   0.825   0.749   0.749   0.754   0.835   0.834   0.834   0.806   0.781   0.798   0.799   0.789   0.774   0.714   0.703   0.715   0.695   0.755   0.772   0.750   0.665   0.708   0.737   0.719   0.763   0.767   0.737   0.740   0.751   0.802   0.811   0.842   0.814   0.760   0.802   0.740   0.715   0.723   0.697   0.684   0.690   0.640   0.674   0.675   0.661   0.664   0.634   0.673   0.650   0.634   0.636   0.648   0.631   0.616   0.608   0.600   0.632   0.649   0.697   0.686   0.633   0.665   0.682   0.656   0.643   0.644   0.702   0.714   0.660   0.639   0.607   0.564   0.621   0.636   0.652   0.675   0.651   0.702   0.659   0.635   0.647   0.641   0.615   0.671   0.716   0.668   0.726   0.735   0.724   0.716   0.748   0.758   0.771   0.663   0.716   0.671   0.698   0.695   0.661   0.639   0.691   0.643   0.623   0.625   0.623   0.664   0.666   0.615   0.628   0.571   0.582   0.601   0.600   0.613   0.609   0.666   0.715   0.714   0.707   0.702   0.691   0.703   0.719   0.692   0.670   0.682   0.639   0.648   0.684   0.647   0.685   0.638   0.695   0.703   0.681   0.661   0.660   0.656   0.690   0.674   0.701   0.698   0.728   0.726   0.709   0.664   0.685
    47.50    0.568   0.638   0.649   0.609   0.633   0.634   0.635   0.662   0.644   0.678   0.682   0.679   0.711   0.708   0.771   0.666   0.659   0.647   0.633   0.641   0.663   0.633   0.677   0.696   0.661   0.648   0.664   0.716   0.652   0.704   0.700   0.756   0.768   0.808   0.831   0.818   0.877   0.835   0.864   0.875   0.869   0.915   0.868   0.870   0.807   0.797   0.797   0.809   0.771   0.753   0.816   0.851   0.796   0.751   0.765   0.737   0.754   0.792   0.786   0.753   0.770   0.747   0.689   0.696   0.737   0.767   0.720   0.722   0.751   0.714   0.778   0.780   0.761   0.727   0.773   0.778   0.796   0.787   0.725   0.767   0.777   0.729   0.730   0.701   0.717   0.694   0.708   0.722   0.650   0.722   0.715   0.697   0.693   0.678   0.672   0.625   0.609   0.636   0.658   0.654   0.678   0.638   0.633   0.695   0.704   0.682   0.659   0.652   0.692   0.683   0.665   0.703   0.671   0.664   0.651   0.644   0.630   0.624   0.604   0.628   0.696   0.679   0.664   0.649   0.675   0.694   0.682   0.696   0.688   0.678   0.705   0.703   0.721   0.745   0.748   0.734   0.754   0.730   0.744   0.703   0.651   0.673   0.701   0.704   0.636   0.654   0.625   0.569   0.586   0.600   0.594   0.625   0.622   0.584   0.605   0.604   0.623   0.624   0.611   0.624   0.602   0.622   0.643   0.712   0.695   0.682   0.691   0.705   0.752   0.665   0.678   0.696   0.665   0.659   0.675   0.654   0.634   0.658   0.715   0.706   0.682   0.670   0.617   0.632   0.672   0.673   0.684   0.669   0.730   0.710   0.715   0.693   0.703
    38.20    0.609   0.608   0.648   0.682   0.659   0.632   0.663   0.652   0.641   0.652   0.707   0.636   0.709   0.712   0.716   0.702   0.687   0.646   0.642   0.674   0.678   0.721   0.671   0.674   0.674   0.684   0.673   0.705   0.682   0.702   0.716   0.785   0.809   0.822   0.841   0.864   0.904   0.894   0.877   0.840   0.879   0.867   0.872   0.841   0.790   0.810   0.796   0.798   0.843   0.795   0.793   0.802   0.856   0.824   0.773   0.771   0.781   0.749   0.813   0.796   0.825   0.753   0.731   0.730   0.708   0.743   0.749   0.763   0.764   0.769   0.783   0.750   0.785   0.751   0.740   0.763   0.752   0.752   0.716   0.720   0.715   0.764   0.771   0.752   0.744   0.728   0.693   0.708   0.693   0.681   0.739   0.716   0.697   0.696   0.699   0.672   0.580   0.614   0.646   0.653   0.688   0.671   0.675   0.695   0.722   0.679   0.680   0.664   0.700   0.675   0.680   0.653   0.648   0.632   0.660   0.635   0.602   0.647   0.654   0.632   0.657   0.653   0.652   0.670   0.647   0.679   0.710   0.688   0.688   0.667   0.701   0.710   0.732   0.725   0.740   0.741   0.789   0.734   0.702   0.680   0.675   0.652   0.665   0.681   0.613   0.625   0.626   0.576   0.556   0.594   0.606   0.659   0.656   0.614   0.592   0.602   0.626   0.673   0.621   0.629   0.636   0.612   0.661   0.685   0.749   0.699   0.713   0.734   0.680   0.681   0.710   0.691   0.713   0.689   0.710   0.689   0.693   0.664   0.726   0.695   0.653   0.627   0.626   0.609   0.644   0.703   0.710   0.706   0.693   0.669   0.672   0.686   0.692
    28.90    0.622   0.606   0.593   0.664   0.698   0.706   0.645   0.646   0.625   0.629   0.684   0.657   0.658   0.697   0.655   0.670   0.700   0.685   0.704   0.758   0.736   0.680   0.673   0.685   0.699   0.659   0.677   0.707   0.730   0.726   0.734   0.777   0.784   0.827   0.852   0.865   0.873   0.909   0.866   0.814   0.840   0.794   0.812   0.767   0.766   0.783   0.777   0.815   0.817   0.854   0.853   0.868   0.849   0.789   0.797   0.764   0.771   0.746   0.750   0.805   0.832   0.810   0.749   0.761   0.727   0.761   0.779   0.796   0.823   0.801   0.739   0.785   0.719   0.735   0.742   0.747   0.738   0.718   0.761   0.724   0.686   0.717   0.780   0.783   0.781   0.772   0.721   0.698   0.718   0.670   0.712   0.731   0.711   0.731   0.697   0.697   0.673   0.696   0.683   0.652   0.677   0.685   0.691   0.665   0.747   0.646   0.654   0.670   0.698   0.645   0.675   0.643   0.651   0.663   0.682   0.650   0.618   0.640   0.655   0.691   0.703   0.697   0.722   0.686   0.650   0.644   0.694   0.718   0.742   0.685   0.725   0.746   0.727   0.691   0.689   0.740   0.739   0.731   0.725   0.688   0.671   0.687   0.662   0.632   0.618   0.614   0.626   0.585   0.580   0.618   0.635   0.673   0.674   0.595   0.598   0.633   0.627   0.625   0.621   0.679   0.647   0.642   0.632   0.674   0.679   0.709   0.694   0.711   0.680   0.665   0.640   0.711   0.625   0.671   0.675   0.702   0.685   0.682   0.699   0.667   0.680   0.612   0.614   0.624   0.682   0.687   0.704   0.679   0.684   0.698   0.686   0.655   0.673
    19.60    0.640   0.653   0.708   0.707   0.709   0.665   0.700   0.645   0.603   0.611   0.627   0.617   0.668   0.643   0.659   0.653   0.703   0.713   0.737   0.707   0.730   0.721   0.685   0.664   0.661   0.683   0.689   0.753   0.724   0.718   0.777   0.787   0.895   0.843   0.822   0.812   0.846   0.864   0.832   0.812   0.810   0.792   0.798   0.772   0.782   0.793   0.795   0.799   0.823   0.829   0.847   0.846   0.803   0.774   0.810   0.787   0.730   0.744   0.767   0.789   0.824   0.785   0.787   0.732   0.727   0.766   0.769   0.795   0.774   0.755   0.798   0.807   0.811   0.801   0.800   0.797   0.789   0.765   0.736   0.703   0.691   0.763   0.809   0.793   0.783   0.773   0.767   0.739   0.711   0.690   0.734   0.696   0.770   0.780   0.717   0.745   0.746   0.741   0.758   0.732   0.705   0.665   0.646   0.680   0.723   0.675   0.653   0.653   0.693   0.636   0.662   0.679   0.642   0.648   0.681   0.670   0.701   0.700   0.663   0.657   0.706   0.679   0.675   0.715   0.721   0.705   0.706   0.711   0.720   0.723   0.738   0.740   0.698   0.670   0.693   0.734   0.722   0.705   0.685   0.675   0.663   0.664   0.603   0.614   0.633   0.606   0.625   0.612   0.627   0.625   0.644   0.653   0.650   0.597   0.627   0.628   0.640   0.673   0.670   0.694   0.689   0.700   0.663   0.677   0.709   0.689   0.686   0.678   0.682   0.654   0.608   0.647   0.675   0.674   0.722   0.704   0.706   0.646   0.653   0.633   0.575   0.610   0.647   0.650   0.643   0.663   0.699   0.636   0.654   0.673   0.688   0.705   0.696
    10.30    0.670   0.689   0.691   0.664   0.690   0.715   0.699   0.710   0.648   0.636   0.656   0.654   0.646   0.673   0.650   0.677   0.722   0.773   0.771   0.755   0.748   0.695   0.705   0.702   0.721   0.704   0.753   0.763   0.722   0.755   0.748   0.844   0.920   0.913   0.882   0.830   0.839   0.796   0.811   0.839   0.822   0.854   0.787   0.778   0.745   0.787   0.776   0.788   0.786   0.805   0.848   0.841   0.813   0.765   0.795   0.776   0.701   0.708   0.735   0.748   0.765   0.778   0.790   0.748   0.745   0.761   0.776   0.797   0.804   0.738   0.782   0.778   0.852   0.818   0.800   0.805   0.814   0.785   0.745   0.754   0.707   0.755   0.803   0.845   0.796   0.778   0.759   0.742   0.736   0.737   0.742   0.729   0.746   0.753   0.729   0.756   0.777   0.762   0.734   0.772   0.690   0.665   0.707   0.681   0.642   0.639   0.667   0.661   0.680   0.692   0.677   0.686   0.661   0.688   0.705   0.695   0.701   0.658   0.654   0.690   0.676   0.660   0.682   0.679   0.672   0.698   0.702   0.719   0.729   0.732   0.762   0.718   0.735   0.707   0.696   0.734   0.747   0.709   0.715   0.669   0.630   0.630   0.554   0.583   0.617   0.617   0.591   0.598   0.612   0.660   0.697   0.708   0.695   0.693   0.704   0.646   0.685   0.696   0.700   0.651   0.740   0.742   0.739   0.720   0.658   0.660   0.657   0.700   0.685   0.695   0.672   0.664   0.712   0.687   0.704   0.667   0.692   0.657   0.635   0.611   0.568   0.621   0.614   0.632   0.609   0.648   0.673   0.654   0.644   0.677   0.655   0.686   0.669
     1.00    0.716   0.688   0.705   0.661   0.695   0.729   0.760   0.691   0.652   0.640   0.658   0.671   0.663   0.664   0.699   0.709   0.745   0.787   0.789   0.705   0.732   0.739   0.679   0.628   0.692   0.687   0.706   0.754   0.748   0.738   0.785   0.829   0.835   0.905   0.909   0.874   0.844   0.781   0.771   0.838   0.837   0.843   0.801   0.840   0.767   0.782   0.787   0.794   0.822   0.827   0.829   0.794   0.767   0.744   0.796   0.775   0.704   0.749   0.737   0.749   0.748   0.742   0.800   0.747   0.780   0.780   0.763   0.794   0.825   0.813   0.782   0.763   0.785   0.827   0.824   0.863   0.832   0.801   0.778   0.769   0.748   0.808   0.782   0.792   0.788   0.821   0.788   0.766   0.725   0.725   0.724   0.739   0.796   0.783   0.722   0.739   0.776   0.745   0.763   0.703   0.708   0.683   0.669   0.646   0.631   0.641   0.679   0.658   0.630   0.650   0.689   0.640   0.688   0.656   0.708   0.698   0.729   0.727   0.722   0.704   0.638   0.617   0.680   0.740   0.661   0.709   0.732   0.719   0.743   0.741   0.717   0.743   0.784   0.770   0.769   0.716   0.766   0.746   0.685   0.676   0.642   0.609   0.593   0.588   0.575   0.643   0.567   0.588   0.612   0.627   0.707   0.710   0.677   0.657   0.668   0.667   0.685   0.711   0.730   0.697   0.719   0.774   0.743   0.681   0.709   0.648   0.645   0.682   0.670   0.652   0.660   0.631   0.657   0.705   0.677   0.658   0.704   0.664   0.640   0.611   0.609   0.628   0.620   0.563   0.612   0.636   0.680   0.627   0.702   0.705   0.748   0.698   0.707

   Height   Standard deviation at grid points for the v component:
   354.40    0.586   0.581   0.581   0.576   0.576   0.585   0.583   0.566   0.573   0.594   0.597   0.580   0.576   0.580   0.612   0.579   0.555   0.531   0.555   0.559   0.560   0.532   0.464   0.478   0.530   0.544   0.573   0.566   0.608   0.595   0.610   0.546   0.558   0.555   0.560   0.588   0.579   0.584   0.575   0.577   0.595   0.587   0.584   0.577   0.604   0.579   0.573   0.574   0.582   0.566   0.600   0.627   0.633   0.636   0.627   0.592   0.594   0.566   0.556   0.585   0.601   0.600   0.600   0.625   0.629   0.616   0.613   0.631   0.622   0.614   0.599   0.580   0.605   0.633   0.615   0.637   0.617   0.620   0.642   0.619   0.589   0.564   0.542   0.534   0.525   0.536   0.552   0.543   0.522   0.536   0.510   0.539   0.560   0.559   0.554   0.570   0.573   0.602   0.605   0.604   0.578   0.553   0.571   0.550   0.544   0.532   0.526   0.525   0.543   0.521   0.559   0.596   0.613   0.559   0.575   0.519   0.534   0.563   0.589   0.579   0.565   0.557   0.562   0.591   0.566   0.585   0.576   0.590   0.609   0.628   0.609   0.632   0.588   0.604   0.611   0.607   0.577   0.578   0.580   0.597   0.636   0.610   0.613   0.625   0.625   0.589   0.598   0.570   0.527   0.547   0.557   0.552   0.531   0.564   0.565   0.579   0.577   0.606   0.575   0.579   0.587   0.614   0.604   0.605   0.577   0.558   0.587   0.594   0.579   0.623   0.609   0.599   0.604   0.572   0.567   0.589   0.599   0.604   0.594   0.592   0.547   0.520   0.514   0.539   0.524   0.546   0.554   0.544   0.571   0.570   0.557   0.582   0.597
   345.10    0.587   0.594   0.578   0.596   0.578   0.585   0.577   0.576   0.560   0.553   0.560   0.548   0.567   0.563   0.563   0.576   0.577   0.584   0.561   0.532   0.562   0.557   0.521   0.493   0.515   0.555   0.557   0.567   0.608   0.596   0.603   0.573   0.545   0.531   0.567   0.555   0.564   0.556   0.574   0.554   0.577   0.593   0.576   0.556   0.584   0.567   0.578   0.589   0.581   0.580   0.586   0.565   0.613   0.612   0.634   0.583   0.578   0.573   0.561   0.575   0.593   0.615   0.614   0.629   0.585   0.593   0.602   0.634   0.580   0.595   0.628   0.591   0.613   0.631   0.605   0.619   0.620   0.591   0.642   0.619   0.607   0.594   0.568   0.540   0.491   0.513   0.521   0.504   0.519   0.521   0.515   0.525   0.564   0.577   0.553   0.553   0.591   0.588   0.601   0.620   0.582   0.574   0.547   0.547   0.556   0.544   0.512   0.524   0.539   0.547   0.581   0.577   0.584   0.553   0.538   0.542   0.514   0.553   0.580   0.579   0.586   0.608   0.606   0.579   0.578   0.597   0.588   0.596   0.609   0.627   0.617   0.617   0.625   0.621   0.637   0.614   0.587   0.618   0.600   0.627   0.627   0.603   0.628   0.605   0.622   0.612   0.594   0.602   0.569   0.576   0.576   0.556   0.555   0.564   0.569   0.602   0.582   0.574   0.588   0.578   0.581   0.616   0.605   0.598   0.588   0.615   0.610   0.629   0.608   0.632   0.617   0.597   0.610   0.571   0.587   0.566   0.602   0.606   0.600   0.571   0.561   0.522   0.529   0.528   0.553   0.527   0.545   0.561   0.581   0.548   0.564   0.570   0.599
   335.80    0.595   0.570   0.564   0.592   0.584   0.556   0.550   0.558   0.562   0.546   0.517   0.550   0.549   0.553   0.550   0.549   0.550   0.579   0.570   0.561   0.551   0.544   0.508   0.522   0.527   0.551   0.571   0.565   0.573   0.622   0.606   0.587   0.555   0.560   0.521   0.525   0.550   0.540   0.548   0.553   0.561   0.569   0.592   0.582   0.582   0.565   0.588   0.576   0.614   0.648   0.600   0.637   0.621   0.612   0.623   0.615   0.590   0.560   0.566   0.568   0.550   0.597   0.603   0.629   0.629   0.608   0.601   0.620   0.581   0.604   0.588   0.602   0.581   0.587   0.576   0.602   0.592   0.606   0.609   0.597   0.611   0.614   0.593   0.563   0.505   0.491   0.512   0.491   0.516   0.522   0.528   0.533   0.559   0.574   0.584   0.594   0.606   0.601   0.597   0.620   0.598   0.568   0.553   0.563   0.531   0.534   0.527   0.551   0.571   0.564   0.548   0.561   0.584   0.573   0.531   0.552   0.570   0.562   0.579   0.592   0.608   0.620   0.606   0.582   0.601   0.594   0.633   0.611   0.611   0.609   0.626   0.631   0.604   0.622   0.643   0.622   0.607   0.622   0.606   0.606   0.623   0.602   0.616   0.633   0.587   0.611   0.620   0.581   0.574   0.586   0.544   0.550   0.570   0.586   0.578   0.571   0.579   0.582   0.581   0.577   0.557   0.616   0.609   0.606   0.586   0.605   0.621   0.602   0.617   0.642   0.646   0.632   0.626   0.605   0.583   0.609   0.595   0.594   0.614   0.609   0.562   0.540   0.567   0.573   0.567   0.544   0.549   0.565   0.571   0.573   0.575   0.565   0.594
   326.50    0.582   0.585   0.582   0.599   0.609   0.578   0.541   0.554   0.574   0.550   0.557   0.556   0.549   0.578   0.528   0.539   0.583   0.593   0.563   0.569   0.566   0.538   0.515   0.529   0.528   0.540   0.561   0.563   0.583   0.610   0.614   0.592   0.581   0.557   0.546   0.523   0.534   0.546   0.535   0.576   0.545   0.562   0.566   0.555   0.563   0.572   0.575   0.599   0.634   0.612   0.632   0.649   0.644   0.619   0.623   0.627   0.588   0.589   0.546   0.560   0.559   0.546   0.579   0.573   0.553   0.575   0.554   0.604   0.614   0.592   0.613   0.591   0.570   0.586   0.583   0.590   0.612   0.607   0.630   0.612   0.617   0.597   0.572   0.600   0.528   0.508   0.522   0.545   0.540   0.513   0.511   0.521   0.562   0.580   0.564   0.585   0.583   0.586   0.617   0.619   0.593   0.576   0.604   0.558   0.564   0.551   0.576   0.577   0.577   0.572   0.571   0.561   0.592   0.564   0.534   0.546   0.596   0.561   0.614   0.660   0.630   0.591   0.624   0.598   0.596   0.615   0.618   0.613   0.590   0.621   0.630   0.625   0.614   0.603   0.599   0.605   0.644   0.646   0.621   0.595   0.624   0.597   0.608   0.626   0.598   0.607   0.624   0.602   0.574   0.577   0.547   0.552   0.605   0.568   0.576   0.564   0.609   0.595   0.566   0.583   0.592   0.659   0.646   0.647   0.647   0.641   0.600   0.622   0.614   0.612   0.593   0.603   0.607   0.572   0.578   0.584   0.599   0.606   0.604   0.588   0.580   0.585   0.560   0.534   0.531   0.546   0.547   0.562   0.567   0.576   0.599   0.584   0.581
[...]
   103.30    0.368   0.373   0.366   0.368   0.364   0.356   0.364   0.352   0.351   0.355   0.355   0.356   0.355   0.349   0.351   0.350   0.352   0.345   0.360   0.351   0.363   0.368   0.373   0.373   0.372   0.360   0.376   0.365   0.368   0.355   0.363   0.354   0.340   0.347   0.341   0.354   0.354   0.358   0.361   0.367   0.350   0.350   0.347   0.350   0.353   0.364   0.357   0.360   0.355   0.364   0.352   0.357   0.360   0.368   0.359   0.362   0.352   0.351   0.349   0.347   0.365   0.363   0.349   0.358   0.365   0.349   0.339   0.347   0.358   0.353   0.353   0.363   0.365   0.357   0.363   0.347   0.356   0.369   0.350   0.343   0.360   0.369   0.355   0.357   0.365   0.361   0.358   0.350   0.358   0.360   0.353   0.350   0.349   0.369   0.365   0.348   0.355   0.353   0.342   0.349   0.346   0.344   0.341   0.348   0.343   0.356   0.347   0.347   0.345   0.347   0.358   0.360   0.354   0.362   0.351   0.344   0.361   0.353   0.341   0.353   0.342   0.351   0.340   0.348   0.355   0.353   0.365   0.350   0.356   0.354   0.340   0.351   0.337   0.352   0.345   0.342   0.328   0.327   0.333   0.332   0.346   0.353   0.352   0.360   0.344   0.339   0.351   0.354   0.362   0.367   0.371   0.357   0.351   0.346   0.339   0.354   0.352   0.358   0.364   0.371   0.360   0.375   0.370   0.371   0.363   0.370   0.364   0.367   0.357   0.343   0.352   0.352   0.368   0.366   0.376   0.365   0.374   0.377   0.389   0.378   0.361   0.357   0.361   0.367   0.366   0.370   0.366   0.368   0.371   0.383   0.370   0.359   0.357
    94.00    0.367   0.361   0.359   0.362   0.364   0.367   0.367   0.349   0.339   0.344   0.345   0.350   0.345   0.356   0.354   0.345   0.354   0.348   0.359   0.359   0.361   0.366   0.368   0.366   0.362   0.360   0.359   0.363   0.359   0.358   0.357   0.351   0.344   0.341   0.342   0.345   0.348   0.367   0.366   0.360   0.345   0.346   0.369   0.355   0.361   0.360   0.358   0.356   0.355   0.350   0.363   0.363   0.359   0.358   0.359   0.360   0.360   0.349   0.357   0.349   0.355   0.351   0.343   0.347   0.351   0.354   0.341   0.346   0.361   0.358   0.356   0.367   0.363   0.356   0.354   0.352   0.349   0.354   0.354   0.352   0.363   0.364   0.366   0.362   0.366   0.361   0.361   0.366   0.358   0.357   0.348   0.353   0.341   0.349   0.350   0.338   0.345   0.339   0.339   0.342   0.338   0.336   0.349   0.345   0.340   0.355   0.347   0.339   0.341   0.349   0.345   0.362   0.360   0.360   0.348   0.358   0.359   0.353   0.364   0.346   0.353   0.354   0.343   0.360   0.351   0.351   0.355   0.357   0.347   0.347   0.354   0.350   0.356   0.357   0.340   0.339   0.335   0.340   0.338   0.339   0.344   0.342   0.353   0.354   0.351   0.355   0.354   0.352   0.353   0.374   0.366   0.359   0.354   0.360   0.338   0.351   0.357   0.353   0.363   0.371   0.361   0.373   0.376   0.376   0.369   0.369   0.373   0.365   0.353   0.354   0.355   0.360   0.365   0.367   0.355   0.369   0.377   0.381   0.383   0.373   0.362   0.350   0.367   0.371   0.376   0.359   0.368   0.374   0.372   0.375   0.363   0.353   0.355
    84.70    0.362   0.354   0.356   0.351   0.360   0.353   0.362   0.351   0.344   0.337   0.352   0.347   0.346   0.342   0.345   0.352   0.356   0.349   0.359   0.354   0.360   0.357   0.357   0.363   0.360   0.349   0.360   0.347   0.345   0.352   0.353   0.359   0.364   0.333   0.352   0.354   0.358   0.349   0.368   0.359   0.352   0.365   0.354   0.364   0.361   0.351   0.353   0.356   0.368   0.364   0.364   0.361   0.357   0.357   0.356   0.355   0.363   0.364   0.366   0.359   0.358   0.342   0.352   0.360   0.359   0.363   0.358   0.349   0.352   0.358   0.355   0.363   0.359   0.358   0.353   0.346   0.341   0.348   0.350   0.352   0.361   0.369   0.359   0.359   0.361   0.358   0.364   0.361   0.357   0.360   0.345   0.334   0.334   0.344   0.352   0.362   0.348   0.333   0.350   0.352   0.336   0.342   0.346   0.360   0.356   0.362   0.362   0.351   0.341   0.343   0.336   0.347   0.353   0.352   0.354   0.361   0.365   0.365   0.345   0.348   0.349   0.355   0.352   0.351   0.352   0.350   0.351   0.345   0.335   0.341   0.341   0.359   0.363   0.357   0.347   0.347   0.337   0.330   0.341   0.332   0.338   0.341   0.350   0.359   0.361   0.351   0.365   0.356   0.364   0.367   0.352   0.353   0.354   0.367   0.357   0.356   0.349   0.366   0.358   0.360   0.363   0.369   0.371   0.367   0.360   0.370   0.371   0.362   0.355   0.344   0.361   0.360   0.362   0.359   0.365   0.374   0.374   0.373   0.374   0.363   0.358   0.354   0.363   0.368   0.362   0.374   0.372   0.359   0.367   0.377   0.358   0.361   0.366
    75.40    0.353   0.357   0.351   0.356   0.360   0.350   0.349   0.354   0.340   0.337   0.349   0.340   0.341   0.343   0.353   0.350   0.346   0.344   0.343   0.346   0.351   0.358   0.352   0.360   0.354   0.349   0.341   0.337   0.351   0.349   0.345   0.350   0.360   0.343   0.342   0.354   0.348   0.355   0.356   0.359   0.360   0.364   0.361   0.358   0.370   0.373   0.367   0.355   0.363   0.355   0.359   0.360   0.349   0.358   0.344   0.345   0.356   0.358   0.362   0.358   0.368   0.352   0.347   0.351   0.350   0.358   0.354   0.354   0.366   0.363   0.363   0.367   0.367   0.368   0.351   0.347   0.333   0.348   0.354   0.363   0.359   0.359   0.356   0.344   0.344   0.343   0.357   0.352   0.355   0.349   0.356   0.342   0.347   0.338   0.350   0.344   0.351   0.335   0.344   0.353   0.352   0.347   0.350   0.356   0.351   0.362   0.358   0.361   0.345   0.343   0.346   0.344   0.346   0.366   0.364   0.353   0.352   0.362   0.366   0.360   0.356   0.365   0.362   0.351   0.348   0.358   0.356   0.350   0.347   0.345   0.339   0.355   0.350   0.349   0.356   0.341   0.346   0.348   0.353   0.343   0.350   0.352   0.367   0.359   0.361   0.354   0.354   0.363   0.353   0.354   0.350   0.353   0.348   0.358   0.352   0.356   0.339   0.352   0.357   0.358   0.354   0.370   0.369   0.368   0.367   0.375   0.364   0.377   0.357   0.356   0.364   0.349   0.359   0.354   0.365   0.371   0.367   0.375   0.364   0.356   0.360   0.352   0.358   0.366   0.371   0.369   0.372   0.364   0.372   0.373   0.358   0.362   0.359
    66.10    0.356   0.358   0.355   0.347   0.354   0.341   0.350   0.350   0.353   0.355   0.349   0.338   0.345   0.347   0.354   0.342   0.343   0.348   0.355   0.349   0.349   0.353   0.344   0.355   0.356   0.357   0.355   0.346   0.341   0.344   0.343   0.345   0.349   0.343   0.350   0.355   0.363   0.357   0.358   0.356   0.355   0.365   0.372   0.358   0.369   0.364   0.350   0.358   0.364   0.360   0.360   0.351   0.350   0.351   0.350   0.360   0.358   0.356   0.358   0.352   0.350   0.356   0.359   0.349   0.360   0.362   0.350   0.356   0.377   0.374   0.371   0.369   0.372   0.368   0.361   0.364   0.352   0.354   0.357   0.363   0.344   0.356   0.349   0.339   0.346   0.340   0.346   0.352   0.352   0.356   0.359   0.350   0.349   0.343   0.354   0.353   0.338   0.343   0.349   0.343   0.357   0.348   0.339   0.356   0.361   0.360   0.363   0.358   0.333   0.343   0.342   0.341   0.345   0.351   0.354   0.352   0.352   0.353   0.366   0.360   0.340   0.332   0.352   0.355   0.351   0.349   0.364   0.360   0.354   0.355   0.360   0.358   0.356   0.351   0.362   0.353   0.357   0.348   0.348   0.355   0.359   0.363   0.356   0.358   0.362   0.376   0.363   0.365   0.359   0.350   0.347   0.366   0.359   0.348   0.360   0.364   0.358   0.349   0.347   0.355   0.353   0.360   0.370   0.363   0.367   0.368   0.369   0.370   0.367   0.364   0.354   0.356   0.365   0.363   0.382   0.379   0.374   0.368   0.367   0.348   0.352   0.352   0.356   0.359   0.364   0.365   0.370   0.344   0.363   0.371   0.374   0.364   0.365
    56.80    0.355   0.359   0.338   0.346   0.351   0.349   0.354   0.346   0.360   0.356   0.338   0.346   0.350   0.352   0.351   0.346   0.342   0.348   0.347   0.350   0.346   0.333   0.342   0.351   0.353   0.358   0.349   0.353   0.354   0.344   0.345   0.344   0.345   0.359   0.349   0.355   0.353   0.355   0.343   0.352   0.361   0.366   0.364   0.359   0.356   0.363   0.371   0.378   0.367   0.364   0.370   0.357   0.353   0.342   0.343   0.354   0.352   0.344   0.352   0.333   0.343   0.350   0.351   0.350   0.365   0.369   0.351   0.365   0.365   0.360   0.374   0.374   0.376   0.376   0.370   0.358   0.366   0.358   0.357   0.358   0.355   0.352   0.354   0.345   0.344   0.343   0.348   0.349   0.349   0.360   0.355   0.351   0.356   0.354   0.360   0.352   0.359   0.354   0.346   0.341   0.340   0.339   0.340   0.356   0.351   0.361   0.368   0.359   0.346   0.332   0.331   0.338   0.336   0.349   0.345   0.343   0.339   0.342   0.343   0.353   0.331   0.338   0.350   0.348   0.348   0.358   0.364   0.368   0.362   0.354   0.360   0.353   0.354   0.363   0.356   0.353   0.353   0.355   0.357   0.361   0.362   0.370   0.366   0.369   0.362   0.370   0.365   0.361   0.358   0.353   0.359   0.369   0.356   0.360   0.370   0.366   0.353   0.354   0.349   0.358   0.356   0.361   0.363   0.367   0.376   0.363   0.365   0.370   0.377   0.372   0.362   0.355   0.358   0.373   0.381   0.365   0.362   0.363   0.363   0.355   0.344   0.361   0.369   0.361   0.354   0.372   0.375   0.355   0.371   0.365   0.368   0.371   0.370
    47.50    0.354   0.355   0.345   0.337   0.349   0.342   0.344   0.353   0.345   0.345   0.349   0.349   0.351   0.359   0.350   0.350   0.357   0.344   0.344   0.349   0.346   0.330   0.334   0.355   0.352   0.343   0.341   0.339   0.348   0.353   0.352   0.350   0.348   0.361   0.351   0.352   0.356   0.350   0.342   0.348   0.354   0.345   0.345   0.346   0.348   0.362   0.379   0.384   0.368   0.367   0.365   0.355   0.362   0.356   0.341   0.347   0.344   0.344   0.348   0.344   0.345   0.345   0.348   0.340   0.359   0.369   0.362   0.356   0.360   0.366   0.371   0.374   0.366   0.376   0.367   0.363   0.365   0.354   0.353   0.357   0.349   0.352   0.345   0.353   0.353   0.345   0.352   0.343   0.348   0.364   0.367   0.358   0.353   0.366   0.355   0.351   0.355   0.347   0.342   0.338   0.344   0.349   0.357   0.346   0.350   0.356   0.362   0.352   0.342   0.335   0.340   0.346   0.343   0.339   0.338   0.333   0.348   0.349   0.352   0.352   0.357   0.346   0.349   0.351   0.353   0.351   0.364   0.347   0.359   0.357   0.360   0.356   0.363   0.356   0.359   0.348   0.352   0.368   0.366   0.371   0.370   0.366   0.366   0.370   0.377   0.367   0.364   0.358   0.360   0.352   0.363   0.370   0.369   0.373   0.363   0.358   0.360   0.356   0.351   0.367   0.365   0.370   0.363   0.379   0.372   0.363   0.378   0.370   0.379   0.369   0.370   0.367   0.356   0.368   0.376   0.376   0.359   0.367   0.361   0.363   0.348   0.367   0.371   0.363   0.358   0.368   0.366   0.369   0.375   0.360   0.359   0.367   0.377
    38.20    0.347   0.350   0.356   0.346   0.349   0.353   0.342   0.350   0.360   0.357   0.364   0.358   0.371   0.362   0.354   0.359   0.351   0.357   0.354   0.343   0.335   0.337   0.344   0.349   0.347   0.341   0.334   0.344   0.345   0.341   0.347   0.352   0.345   0.342   0.354   0.349   0.349   0.349   0.349   0.343   0.332   0.332   0.337   0.350   0.353   0.359   0.368   0.363   0.362   0.351   0.348   0.344   0.355   0.364   0.356   0.360   0.345   0.353   0.345   0.340   0.349   0.348   0.346   0.343   0.360   0.363   0.351   0.354   0.349   0.334   0.360   0.370   0.381   0.381   0.367   0.376   0.371   0.352   0.346   0.347   0.350   0.357   0.351   0.348   0.357   0.352   0.343   0.338   0.335   0.346   0.353   0.359   0.353   0.348   0.348   0.354   0.349   0.348   0.350   0.359   0.346   0.340   0.335   0.351   0.358   0.350   0.346   0.349   0.336   0.345   0.352   0.350   0.341   0.342   0.344   0.346   0.352   0.351   0.343   0.356   0.347   0.353   0.344   0.350   0.348   0.345   0.353   0.351   0.343   0.345   0.349   0.351   0.357   0.365   0.356   0.347   0.347   0.382   0.376   0.377   0.369   0.364   0.368   0.368   0.372   0.371   0.363   0.361   0.363   0.351   0.364   0.368   0.370   0.361   0.372   0.363   0.352   0.367   0.357   0.362   0.358   0.361   0.369   0.374   0.379   0.367   0.372   0.383   0.382   0.384   0.371   0.361   0.370   0.367   0.366   0.364   0.354   0.355   0.358   0.354   0.354   0.354   0.354   0.356   0.356   0.354   0.354   0.357   0.365   0.348   0.354   0.374   0.366
    28.90    0.346   0.341   0.348   0.349   0.346   0.362   0.349   0.350   0.355   0.362   0.360   0.356   0.366   0.358   0.366   0.356   0.357   0.356   0.363   0.345   0.342   0.342   0.340   0.349   0.333   0.343   0.341   0.351   0.343   0.341   0.355   0.342   0.347   0.349   0.360   0.366   0.338   0.338   0.340   0.340   0.344   0.335   0.340   0.342   0.351   0.353   0.362   0.357   0.350   0.343   0.350   0.351   0.345   0.355   0.348   0.350   0.355   0.348   0.348   0.345   0.345   0.339   0.344   0.357   0.362   0.356   0.347   0.358   0.344   0.342   0.356   0.358   0.371   0.369   0.364   0.367   0.363   0.354   0.350   0.354   0.349   0.357   0.350   0.352   0.353   0.346   0.346   0.344   0.342   0.348   0.367   0.358   0.357   0.356   0.347   0.353   0.354   0.355   0.339   0.347   0.352   0.336   0.346   0.352   0.347   0.351   0.349   0.353   0.359   0.355   0.356   0.360   0.349   0.351   0.349   0.343   0.356   0.351   0.348   0.352   0.344   0.353   0.359   0.364   0.350   0.353   0.353   0.353   0.352   0.340   0.341   0.346   0.350   0.361   0.356   0.356   0.358   0.377   0.369   0.372   0.379   0.370   0.367   0.368   0.368   0.366   0.364   0.359   0.356   0.375   0.367   0.366   0.370   0.367   0.382   0.379   0.368   0.366   0.368   0.358   0.353   0.358   0.371   0.372   0.373   0.375   0.376   0.378   0.381   0.372   0.369   0.367   0.374   0.367   0.369   0.345   0.346   0.348   0.355   0.352   0.349   0.343   0.363   0.356   0.357   0.355   0.348   0.354   0.359   0.354   0.354   0.364   0.344
    19.60    0.347   0.354   0.345   0.344   0.352   0.356   0.363   0.349   0.357   0.355   0.357   0.343   0.355   0.351   0.364   0.353   0.362   0.378   0.353   0.346   0.340   0.338   0.327   0.346   0.348   0.337   0.340   0.341   0.352   0.344   0.352   0.356   0.353   0.360   0.360   0.363   0.354   0.349   0.344   0.344   0.342   0.333   0.335   0.348   0.364   0.350   0.365   0.348   0.345   0.346   0.340   0.343   0.332   0.337   0.347   0.350   0.349   0.350   0.343   0.335   0.343   0.344   0.340   0.358   0.361   0.360   0.363   0.358   0.352   0.338   0.344   0.353   0.356   0.366   0.358   0.365   0.368   0.360   0.352   0.356   0.349   0.344   0.344   0.345   0.356   0.347   0.352   0.350   0.351   0.361   0.363   0.364   0.362   0.360   0.352   0.348   0.351   0.345   0.346   0.352   0.342   0.346   0.353   0.359   0.356   0.357   0.345   0.352   0.357   0.356   0.349   0.356   0.347   0.342   0.350   0.360   0.356   0.357   0.355   0.353   0.369   0.352   0.358   0.365   0.353   0.343   0.359   0.354   0.358   0.353   0.345   0.348   0.353   0.361   0.358   0.350   0.356   0.363   0.369   0.372   0.375   0.373   0.356   0.361   0.358   0.359   0.357   0.355   0.367   0.365   0.368   0.364   0.378   0.375   0.387   0.381   0.367   0.361   0.361   0.352   0.347   0.350   0.363   0.362   0.357   0.373   0.382   0.378   0.363   0.374   0.358   0.350   0.357   0.360   0.365   0.363   0.349   0.362   0.361   0.365   0.354   0.345   0.357   0.358   0.366   0.359   0.353   0.354   0.367   0.369   0.357   0.366   0.354
    10.30    0.362   0.354   0.349   0.349   0.356   0.361   0.355   0.353   0.345   0.343   0.355   0.349   0.344   0.351   0.368   0.346   0.357   0.362   0.365   0.331   0.347   0.348   0.345   0.345   0.334   0.344   0.346   0.360   0.356   0.343   0.350   0.351   0.351   0.359   0.358   0.358   0.351   0.357   0.348   0.357   0.357   0.357   0.349   0.355   0.357   0.355   0.359   0.356   0.348   0.355   0.348   0.339   0.339   0.338   0.351   0.349   0.355   0.363   0.354   0.340   0.340   0.349   0.348   0.353   0.355   0.372   0.367   0.358   0.359   0.357   0.339   0.348   0.343   0.366   0.367   0.364   0.346   0.349   0.355   0.352   0.343   0.335   0.348   0.346   0.353   0.357   0.351   0.360   0.363   0.371   0.372   0.369   0.364   0.358   0.344   0.337   0.343   0.341   0.344   0.353   0.341   0.349   0.365   0.369   0.356   0.358   0.361   0.350   0.351   0.341   0.339   0.344   0.344   0.342   0.349   0.354   0.353   0.358   0.354   0.358   0.356   0.362   0.365   0.371   0.343   0.346   0.353   0.354   0.354   0.358   0.356   0.353   0.355   0.360   0.351   0.354   0.359   0.359   0.367   0.366   0.366   0.373   0.363   0.353   0.352   0.357   0.357   0.367   0.370   0.364   0.364   0.371   0.372   0.375   0.369   0.379   0.376   0.374   0.358   0.354   0.346   0.346   0.359   0.366   0.356   0.352   0.356   0.365   0.362   0.364   0.366   0.362   0.362   0.373   0.380   0.370   0.362   0.370   0.369   0.370   0.361   0.359   0.359   0.358   0.369   0.348   0.346   0.354   0.366   0.370   0.368   0.363   0.361
     1.00    0.356   0.363   0.358   0.353   0.348   0.357   0.351   0.352   0.355   0.345   0.353   0.367   0.358   0.359   0.363   0.357   0.353   0.352   0.349   0.351   0.354   0.351   0.341   0.346   0.344   0.347   0.350   0.359   0.347   0.351   0.347   0.353   0.352   0.354   0.354   0.360   0.360   0.356   0.355   0.365   0.355   0.348   0.350   0.351   0.359   0.361   0.359   0.356   0.362   0.356   0.343   0.338   0.333   0.341   0.339   0.349   0.360   0.355   0.353   0.341   0.348   0.358   0.365   0.356   0.364   0.357   0.368   0.374   0.365   0.356   0.355   0.349   0.362   0.362   0.353   0.361   0.350   0.355   0.353   0.350   0.355   0.363   0.342   0.346   0.348   0.364   0.358   0.346   0.354   0.348   0.372   0.362   0.351   0.362   0.346   0.354   0.360   0.339   0.348   0.352   0.341   0.347   0.355   0.360   0.357   0.358   0.363   0.363   0.343   0.353   0.349   0.347   0.347   0.351   0.347   0.349   0.355   0.358   0.347   0.360   0.356   0.353   0.352   0.354   0.340   0.342   0.356   0.359   0.356   0.358   0.358   0.362   0.363   0.357   0.366   0.355   0.361   0.359   0.367   0.366   0.363   0.373   0.366   0.353   0.358   0.358   0.359   0.368   0.368   0.367   0.361   0.378   0.371   0.369   0.374   0.357   0.361   0.365   0.365   0.358   0.352   0.357   0.358   0.351   0.364   0.354   0.351   0.352   0.360   0.371   0.368   0.371   0.372   0.366   0.371   0.373   0.368   0.370   0.367   0.353   0.364   0.362   0.357   0.358   0.358   0.350   0.339   0.357   0.359   0.359   0.368   0.362   0.366

   Mean standard deviation across all grid points:
      u component:    0.701 m/s
      v component:    0.588 m/s
      w component:    0.355 m/s


U-component (X) statistics from the interpolated hub point:

   Mean =   9.7063 m/s
   TI   =   7.2536 %


Processing complete.  2.10729E+05 CPU seconds used.
