
This summary file was generated by TurbSim (from OpenFAST-v3.5.3) on 20-Apr-2025 at 00:53:38.


Runtime Options:

**********  Random seed #1
    RANLUX  Type of random number generator
         F  Output binary HH turbulence parameters?
         F  Output formatted turbulence parameters?
         F  Output AeroDyn HH files?
         T  Output AeroDyn FF files?
         F  Output BLADED FF files?
         F  Output tower data?
         F  Output HAWC FF files?
         F  Output formatted FF files?
         T  Output coherent turbulence time step file?
 0 -  NONE  IEC turbulence models scaled to exact specified standard deviation


Turbine/Model Specifications:

        39  Vertical grid-point matrix dimension
       193  Horizontal grid-point matrix dimension
     0.250  Time step [seconds]
   900.000  Analysis time [seconds]
   900.000  Usable output time [seconds]
   177.700  Hub height [m]
   353.400  Grid height [m]
  1785.600  Grid width [m]
     0.000  Vertical flow angle [degrees]
     0.000  Horizontal flow angle [degrees]


Meteorological Boundary Conditions:

    IECKAI  IEC Kaimal spectral model
         1  IEC standard: IEC 61400-1 Ed. 3: 2005
     7.500  Percent turbulence intensity, IEC 61400-1 Ed. 3: 2005
       NTM  IEC Normal Turbulence Model
       N/A  IEC Extreme Turbulence Model (ETM) "c" parameter [m/s]
       USR  Wind profile type
    90.000  Reference height [m]
       N/A  Reference wind speed [m/s]
       N/A  Jet height [m]
       N/A  Power law exponent
     0.030  Surface roughness length [m]


Non-IEC Meteorological Boundary Conditions:

       N/A  Site latitude [degrees]
       N/A  Gradient Richardson number
       N/A  Friction or shear velocity [m/s]
       N/A  Mixing layer depth [m]
       N/A  Mean hub u'w' Reynolds stress
       N/A  Mean hub u'v' Reynolds stress
       N/A  Mean hub v'w' Reynolds stress


Spatial Coherence Models:

       IEC  u-component coherence model
       IEC  v-component coherence model
       IEC  w-component coherence model
(   12.000, 0.353E-03)  u-component coherence parameters
(   12.000, 0.353E-03)  v-component coherence parameters
(   12.000, 0.353E-03)  w-component coherence parameters
       N/A  Coherence exponent


User-Defined Profiles:

  Height   Wind Speed   Horizontal Angle
   (m)        (m/s)          (deg)      
  ------   ----------   ----------------
  353.40      10.00         318.19
  334.80      10.00         321.14
  316.20      10.00         324.10
  297.60      10.00         327.05
  279.00      10.00         330.00
  260.40      10.00         332.95
  241.80      10.00         335.90
  223.20      10.00         338.86
  204.60      10.00         341.81
  186.00      10.00         344.76
  167.40      10.00         347.71
  148.80      10.00         350.67
  130.20      10.00         353.62
  111.60      10.00         356.57
   93.00      10.00         359.52
   74.40      10.00           2.48
   55.80      10.00           5.43
   37.20      10.00           8.38
   18.60      10.00          11.33
    0.00      10.00          14.29


You have requested that the following file(s) be generated:

   /kfs3/scratch/agupta/Projects/RL_Incubator/FinalRuns_Veer/Seed4/./FFSim_Seed4/Cond00_v10.0_PL0.12_TI7.5/Seed_9/Low.bts (AeroDyn/TurbSim full-field wind file)


Turbulence Simulation Scaling Parameter Summary:

   Turbulence model used                            =  IEC Kaimal
   Turbulence characteristic                        =  User-specified
   IEC standard                                     =  IEC 61400-1 Ed. 3: 2005
   Mean wind speed at hub height                    =   10.000 m/s
   Characteristic value of standard deviation       =    0.750 m/s
   Turbulence scale                                 =   42.000 m
   u-component integral scale                       =  340.200 m
   Coherency scale                                  =  340.200 m
   Characteristic value of hub turbulence intensity =    7.500%
   Gradient Richardson number                       =    0.000

   Wind profile type                                =  Linear interpolation of user-defined profile
   Equivalent power law exponent (upper rotor disk) =    0.000
   Mean shear across rotor disk                     =    0.000 (m/s)/m
   Assumed rotor diameter                           =  353.400 m
   Surface roughness length                         =    0.030 m

   Nyquist frequency of turbulent wind field        =    2.000 Hz

   Number of time steps in the FFT                  =     3600
   Number of time steps output                      =     3600
   Number of points simulated                       =     7527


Mean Flow Angles:

   Vertical   =   0.0 degrees
   Horizontal =   0.0 degrees

Mean Wind Speed Profile:

   Height    Wind Speed   Horizontal Angle  Vertical Angle  U-comp (X)   V-comp (Y)   W-comp (Z)
     (m)        (m/s)         (degrees)       (degrees)       (m/s)        (m/s)        (m/s)   
   ------    ----------   ----------------  --------------  ----------   ----------   ----------
    354.4       10.00          318.19            0.00          7.45        -6.67         0.00
    345.1       10.00          319.51            0.00          7.60        -6.49         0.00
    335.8       10.00          320.98            0.00          7.77        -6.30         0.00
    326.5       10.00          322.46            0.00          7.93        -6.09         0.00
    317.2       10.00          323.94            0.00          8.08        -5.89         0.00
    307.9       10.00          325.41            0.00          8.23        -5.68         0.00
    298.6       10.00          326.89            0.00          8.38        -5.46         0.00
    289.3       10.00          328.37            0.00          8.51        -5.25         0.00
    280.0       10.00          329.84            0.00          8.65        -5.02         0.00
    270.7       10.00          331.32            0.00          8.77        -4.80         0.00
    261.4       10.00          332.79            0.00          8.89        -4.57         0.00
    252.1       10.00          334.27            0.00          9.01        -4.34         0.00
    242.8       10.00          335.75            0.00          9.12        -4.11         0.00
    233.5       10.00          337.22            0.00          9.22        -3.87         0.00
    224.2       10.00          338.70            0.00          9.32        -3.63         0.00
    214.9       10.00          340.17            0.00          9.41        -3.39         0.00
    205.6       10.00          341.65            0.00          9.49        -3.15         0.00
    196.3       10.00          343.13            0.00          9.57        -2.90         0.00
    187.0       10.00          344.60            0.00          9.64        -2.66         0.00
    177.7       10.00          346.08            0.00          9.71        -2.41         0.00
    168.4       10.00          347.56            0.00          9.77        -2.15         0.00
    159.1       10.00          349.03            0.00          9.82        -1.90         0.00
    149.8       10.00          350.51            0.00          9.86        -1.65         0.00
    140.5       10.00          351.98            0.00          9.90        -1.39         0.00
    131.2       10.00          353.46            0.00          9.93        -1.14         0.00
    121.9       10.00          354.94            0.00          9.96        -0.88         0.00
    112.6       10.00          356.41            0.00          9.98        -0.63         0.00
    103.3       10.00          357.89            0.00          9.99        -0.37         0.00
     94.0       10.00          359.37            0.00         10.00        -0.11         0.00
     84.7       10.00          360.84            0.00         10.00         0.15         0.00
     75.4       10.00          362.32            0.00          9.99         0.40         0.00
     66.1       10.00            3.79            0.00          9.98         0.66         0.00
     56.8       10.00            5.27            0.00          9.96         0.92         0.00
     47.5       10.00            6.75            0.00          9.93         1.17         0.00
     38.2       10.00            8.22            0.00          9.90         1.43         0.00
     28.9       10.00            9.70            0.00          9.86         1.68         0.00
     19.6       10.00           11.17            0.00          9.81         1.94         0.00
     10.3       10.00           12.65            0.00          9.76         2.19         0.00
      1.0       10.00           14.13            0.00          9.70         2.44         0.00


Harvested Random Seeds after Generation of the Random Numbers:

    377667225 K 1
            0 K 2


Hub-Height Simulated Turbulence Statistical Summary:

   Type of Wind        Min (m/s)   Mean (m/s)    Max (m/s)  Sigma (m/s)       TI (%)
   ----------------    ---------   ----------    ---------  -----------       ------
   Longitudinal (u)         8.20        10.00        11.96        0.619        6.187
   Lateral (v)             -1.69         0.00         1.94        0.575        5.746
   Vertical (w)            -1.16        -0.00         1.19        0.343        3.426
   U component              7.95         9.71        11.86        0.620        6.390
   V component             -4.05        -2.41        -0.24        0.573        5.903
   W component             -1.16        -0.00         1.19        0.343        3.529
   Horizontal (U&V)         8.20        10.02        12.00        0.617        6.156
   Total                    8.21        10.02        12.01        0.616        6.150

                       Min Reynolds     Mean Reynolds    Max Reynolds    Correlation
   Product             Stress (m/s)^2   Stress (m/s)^2   Stress (m/s)^2  Coefficient
   ----------------    --------------   --------------   --------------  -----------
   u'w'                     -1.543            -0.012             0.993        -0.058
   u'v'                     -2.401             0.011             2.129         0.030
   v'w'                     -1.124             0.013             1.679         0.065


   Friction Velocity (Ustar)  =      0.111 m/s
   Maximum Instantaneous TKE  =      2.613 (m/s)^2
   Maximum Instantaneous CTKE =      1.464 (m/s)^2


Grid Point Variance Summary:

   Y-coord -892.80 -883.50 -874.20 -864.90 -855.60 -846.30 -837.00 -827.70 -818.40 -809.10 -799.80 -790.50 -781.20 -771.90 -762.60 -753.30 -744.00 -734.70 -725.40 -716.10 -706.80 -697.50 -688.20 -678.90 -669.60 -660.30 -651.00 -641.70 -632.40 -623.10 -613.80 -604.50 -595.20 -585.90 -576.60 -567.30 -558.00 -548.70 -539.40 -530.10 -520.80 -511.50 -502.20 -492.90 -483.60 -474.30 -465.00 -455.70 -446.40 -437.10 -427.80 -418.50 -409.20 -399.90 -390.60 -381.30 -372.00 -362.70 -353.40 -344.10 -334.80 -325.50 -316.20 -306.90 -297.60 -288.30 -279.00 -269.70 -260.40 -251.10 -241.80 -232.50 -223.20 -213.90 -204.60 -195.30 -186.00 -176.70 -167.40 -158.10 -148.80 -139.50 -130.20 -120.90 -111.60 -102.30  -93.00  -83.70  -74.40  -65.10  -55.80  -46.50  -37.20  -27.90  -18.60   -9.30    0.00    9.30   18.60   27.90   37.20   46.50   55.80   65.10   74.40   83.70   93.00  102.30  111.60  120.90  130.20  139.50  148.80  158.10  167.40  176.70  186.00  195.30  204.60  213.90  223.20  232.50  241.80  251.10  260.40  269.70  279.00  288.30  297.60  306.90  316.20  325.50  334.80  344.10  353.40  362.70  372.00  381.30  390.60  399.90  409.20  418.50  427.80  437.10  446.40  455.70  465.00  474.30  483.60  492.90  502.20  511.50  520.80  530.10  539.40  548.70  558.00  567.30  576.60  585.90  595.20  604.50  613.80  623.10  632.40  641.70  651.00  660.30  669.60  678.90  688.20  697.50  706.80  716.10  725.40  734.70  744.00  753.30  762.60  771.90  781.20  790.50  799.80  809.10  818.40  827.70  837.00  846.30  855.60  864.90  874.20  883.50  892.80

   Height   Standard deviation at grid points for the u component:
   354.40    0.742   0.747   0.770   0.766   0.774   0.808   0.790   0.774   0.780   0.758   0.749   0.722   0.770   0.803   0.743   0.755   0.706   0.662   0.688   0.659   0.611   0.670   0.687   0.691   0.697   0.707   0.681   0.617   0.649   0.664   0.703   0.637   0.650   0.658   0.672   0.662   0.648   0.677   0.655   0.678   0.672   0.660   0.671   0.626   0.579   0.651   0.671   0.680   0.640   0.659   0.655   0.744   0.759   0.807   0.786   0.761   0.740   0.764   0.815   0.697   0.672   0.691   0.699   0.688   0.641   0.621   0.645   0.621   0.624   0.656   0.625   0.589   0.562   0.596   0.644   0.651   0.631   0.701   0.697   0.710   0.676   0.677   0.622   0.599   0.647   0.649   0.653   0.637   0.618   0.597   0.647   0.635   0.658   0.575   0.584   0.602   0.592   0.584   0.591   0.601   0.626   0.655   0.652   0.674   0.657   0.674   0.716   0.748   0.770   0.788   0.766   0.773   0.722   0.697   0.720   0.730   0.750   0.780   0.779   0.797   0.803   0.716   0.743   0.691   0.676   0.665   0.678   0.623   0.647   0.698   0.724   0.679   0.690   0.705   0.679   0.691   0.699   0.669   0.627   0.631   0.664   0.676   0.655   0.665   0.600   0.607   0.602   0.618   0.588   0.645   0.648   0.716   0.766   0.729   0.743   0.724   0.720   0.722   0.721   0.657   0.662   0.662   0.687   0.647   0.661   0.642   0.695   0.737   0.703   0.660   0.683   0.672   0.731   0.721   0.684   0.652   0.647   0.627   0.584   0.585   0.650   0.727   0.787   0.784   0.765   0.784   0.793   0.802   0.798   0.731   0.711   0.717   0.662
   345.10    0.760   0.726   0.742   0.789   0.775   0.797   0.777   0.794   0.769   0.779   0.731   0.727   0.735   0.762   0.793   0.759   0.702   0.656   0.678   0.648   0.664   0.664   0.693   0.711   0.701   0.727   0.669   0.626   0.670   0.699   0.659   0.679   0.657   0.667   0.682   0.665   0.640   0.616   0.616   0.672   0.662   0.685   0.638   0.635   0.613   0.616   0.662   0.672   0.654   0.663   0.652   0.689   0.721   0.771   0.829   0.788   0.776   0.736   0.770   0.730   0.735   0.737   0.680   0.680   0.677   0.664   0.655   0.610   0.647   0.632   0.610   0.631   0.621   0.614   0.637   0.643   0.669   0.682   0.687   0.640   0.659   0.642   0.635   0.614   0.604   0.615   0.615   0.618   0.642   0.635   0.681   0.661   0.645   0.598   0.590   0.639   0.596   0.606   0.593   0.600   0.602   0.622   0.663   0.710   0.692   0.690   0.720   0.717   0.734   0.707   0.734   0.706   0.706   0.709   0.707   0.728   0.714   0.715   0.727   0.753   0.755   0.755   0.739   0.741   0.690   0.726   0.670   0.626   0.642   0.665   0.697   0.651   0.665   0.652   0.648   0.686   0.662   0.684   0.652   0.627   0.661   0.620   0.601   0.650   0.653   0.628   0.620   0.566   0.582   0.658   0.627   0.713   0.721   0.706   0.716   0.777   0.804   0.749   0.750   0.707   0.686   0.668   0.702   0.649   0.637   0.624   0.660   0.639   0.611   0.593   0.637   0.642   0.669   0.677   0.695   0.657   0.659   0.621   0.622   0.611   0.692   0.754   0.760   0.764   0.734   0.792   0.818   0.817   0.769   0.707   0.635   0.686   0.629
   335.80    0.738   0.762   0.767   0.811   0.804   0.808   0.771   0.751   0.748   0.784   0.740   0.744   0.737   0.750   0.756   0.761   0.726   0.723   0.652   0.647   0.663   0.646   0.679   0.671   0.704   0.705   0.711   0.684   0.694   0.693   0.652   0.700   0.680   0.698   0.670   0.638   0.624   0.659   0.666   0.668   0.677   0.661   0.595   0.605   0.600   0.638   0.641   0.670   0.627   0.631   0.675   0.710   0.706   0.746   0.756   0.772   0.781   0.723   0.716   0.704   0.754   0.782   0.759   0.717   0.700   0.653   0.654   0.658   0.657   0.665   0.615   0.639   0.640   0.648   0.647   0.647   0.648   0.678   0.655   0.677   0.608   0.617   0.622   0.591   0.600   0.617   0.555   0.615   0.641   0.621   0.629   0.666   0.627   0.623   0.622   0.615   0.635   0.626   0.605   0.609   0.602   0.624   0.646   0.671   0.670   0.678   0.710   0.688   0.680   0.657   0.686   0.725   0.683   0.672   0.725   0.731   0.744   0.780   0.744   0.724   0.762   0.761   0.732   0.716   0.708   0.677   0.688   0.645   0.652   0.666   0.678   0.658   0.683   0.647   0.654   0.669   0.672   0.714   0.637   0.647   0.622   0.611   0.586   0.585   0.593   0.599   0.609   0.603   0.610   0.626   0.688   0.727   0.715   0.710   0.747   0.751   0.775   0.727   0.717   0.684   0.711   0.723   0.698   0.687   0.686   0.677   0.660   0.659   0.687   0.659   0.664   0.659   0.694   0.743   0.718   0.661   0.706   0.717   0.716   0.722   0.711   0.758   0.770   0.747   0.756   0.754   0.774   0.807   0.806   0.705   0.711   0.723   0.674
   326.50    0.793   0.786   0.820   0.817   0.819   0.718   0.761   0.768   0.763   0.745   0.748   0.703   0.725   0.710   0.735   0.706   0.765   0.768   0.752   0.698   0.669   0.692   0.733   0.750   0.709   0.713   0.718   0.698   0.716   0.709   0.677   0.700   0.740   0.685   0.653   0.638   0.630   0.630   0.670   0.708   0.662   0.617   0.609   0.616   0.659   0.701   0.717   0.731   0.723   0.729   0.728   0.717   0.753   0.734   0.738   0.734   0.776   0.730   0.737   0.727   0.779   0.815   0.766   0.747   0.769   0.754   0.691   0.673   0.723   0.686   0.672   0.662   0.638   0.639   0.626   0.616   0.597   0.645   0.657   0.623   0.639   0.599   0.557   0.569   0.572   0.589   0.570   0.593   0.575   0.596   0.629   0.629   0.600   0.614   0.630   0.623   0.602   0.595   0.584   0.572   0.641   0.640   0.620   0.609   0.637   0.661   0.717   0.719   0.686   0.705   0.690   0.701   0.701   0.699   0.687   0.727   0.764   0.736   0.716   0.743   0.755   0.782   0.773   0.725   0.690   0.677   0.695   0.676   0.675   0.668   0.673   0.633   0.670   0.674   0.691   0.673   0.652   0.682   0.669   0.618   0.609   0.596   0.639   0.600   0.546   0.565   0.576   0.589   0.634   0.671   0.681   0.730   0.699   0.709   0.711   0.760   0.752   0.739   0.767   0.711   0.691   0.716   0.758   0.694   0.732   0.711   0.691   0.703   0.730   0.669   0.662   0.690   0.687   0.758   0.761   0.728   0.757   0.738   0.805   0.787   0.735   0.751   0.747   0.755   0.742   0.734   0.758   0.763   0.800   0.752   0.785   0.762   0.696
   317.20    0.747   0.759   0.735   0.754   0.789   0.744   0.739   0.758   0.787   0.721   0.694   0.720   0.709   0.692   0.671   0.697   0.716   0.754   0.718   0.683   0.690   0.701   0.763   0.751   0.773   0.767   0.807   0.754   0.728   0.697   0.701   0.750   0.742   0.698   0.689   0.632   0.612   0.614   0.664   0.647   0.652   0.622   0.626   0.617   0.659   0.714   0.735   0.777   0.727   0.713   0.713   0.679   0.716   0.742   0.773   0.752   0.760   0.785   0.786   0.739   0.801   0.838   0.824   0.772   0.717   0.747   0.777   0.761   0.730   0.663   0.666   0.649   0.605   0.607   0.596   0.602   0.576   0.636   0.659   0.638   0.604   0.578   0.605   0.560   0.552   0.592   0.580   0.596   0.565   0.599   0.617   0.627   0.646   0.644   0.633   0.645   0.650   0.618   0.642   0.649   0.615   0.664   0.652   0.654   0.637   0.667   0.725   0.727   0.715   0.695   0.694   0.733   0.730   0.734   0.758   0.703   0.759   0.765   0.752   0.711   0.728   0.762   0.713   0.734   0.654   0.672   0.649   0.642   0.684   0.692   0.673   0.653   0.635   0.659   0.663   0.710   0.699   0.648   0.663   0.615   0.603   0.593   0.609   0.600   0.566   0.584   0.586   0.595   0.645   0.705   0.681   0.707   0.707   0.725   0.714   0.741   0.781   0.765   0.771   0.736   0.719   0.785   0.766   0.722   0.696   0.668   0.645   0.669   0.695   0.693   0.643   0.712   0.690   0.739   0.737   0.771   0.749   0.772   0.785   0.770   0.706   0.766   0.730   0.769   0.773   0.735   0.746   0.753   0.833   0.813   0.813   0.820   0.756
   307.90    0.786   0.742   0.732   0.730   0.722   0.708   0.734   0.757   0.774   0.748   0.690   0.676   0.697   0.649   0.659   0.671   0.707   0.744   0.751   0.744   0.684   0.671   0.725   0.729   0.709   0.739   0.776   0.774   0.713   0.690   0.694   0.718   0.741   0.717   0.734   0.694   0.621   0.615   0.656   0.590   0.615   0.617   0.651   0.642   0.709   0.692   0.731   0.754   0.753   0.719   0.711   0.679   0.688   0.710   0.770   0.757   0.753   0.770   0.704   0.730   0.728   0.767   0.784   0.731   0.706   0.759   0.791   0.838   0.755   0.712   0.696   0.629   0.641   0.576   0.572   0.641   0.637   0.632   0.637   0.617   0.583   0.557   0.571   0.558   0.608   0.605   0.595   0.622   0.594   0.614   0.604   0.624   0.624   0.594   0.623   0.637   0.629   0.622   0.673   0.639   0.634   0.597   0.668   0.655   0.682   0.700   0.694   0.726   0.711   0.736   0.742   0.756   0.798   0.744   0.733   0.711   0.749   0.761   0.751   0.687   0.703   0.728   0.695   0.701   0.682   0.651   0.689   0.633   0.653   0.694   0.673   0.651   0.644   0.692   0.717   0.739   0.721   0.629   0.641   0.639   0.629   0.655   0.642   0.631   0.607   0.582   0.582   0.618   0.651   0.698   0.648   0.680   0.721   0.701   0.717   0.777   0.829   0.792   0.784   0.797   0.779   0.758   0.767   0.756   0.689   0.692   0.704   0.695   0.643   0.657   0.672   0.715   0.709   0.748   0.682   0.743   0.699   0.714   0.745   0.775   0.743   0.733   0.757   0.782   0.812   0.753   0.753   0.729   0.757   0.815   0.824   0.763   0.706
   298.60    0.683   0.713   0.732   0.692   0.723   0.714   0.694   0.688   0.736   0.751   0.701   0.666   0.691   0.717   0.689   0.705   0.702   0.743   0.787   0.772   0.731   0.715   0.691   0.704   0.725   0.791   0.781   0.759   0.734   0.711   0.717   0.779   0.800   0.798   0.795   0.697   0.648   0.608   0.644   0.606   0.679   0.629   0.639   0.647   0.701   0.622   0.671   0.718   0.723   0.672   0.668   0.661   0.707   0.694   0.707   0.757   0.742   0.755   0.724   0.732   0.700   0.722   0.753   0.734   0.707   0.748   0.794   0.779   0.745   0.741   0.717   0.683   0.671   0.629   0.629   0.626   0.637   0.598   0.608   0.630   0.597   0.582   0.607   0.624   0.627   0.583   0.617   0.589   0.629   0.634   0.586   0.607   0.596   0.607   0.613   0.625   0.605   0.603   0.649   0.656   0.659   0.626   0.656   0.660   0.652   0.689   0.699   0.740   0.701   0.725   0.689   0.688   0.712   0.767   0.747   0.734   0.773   0.767   0.749   0.725   0.685   0.680   0.645   0.660   0.678   0.661   0.680   0.648   0.674   0.674   0.688   0.690   0.706   0.717   0.734   0.732   0.729   0.711   0.702   0.713   0.721   0.708   0.690   0.673   0.609   0.620   0.624   0.673   0.697   0.680   0.702   0.702   0.756   0.752   0.726   0.782   0.811   0.860   0.889   0.824   0.822   0.797   0.821   0.795   0.739   0.651   0.682   0.709   0.707   0.691   0.748   0.709   0.700   0.689   0.693   0.700   0.697   0.720   0.752   0.736   0.782   0.750   0.774   0.814   0.758   0.717   0.760   0.741   0.769   0.790   0.815   0.728   0.735
   289.30    0.676   0.674   0.697   0.683   0.689   0.691   0.668   0.699   0.748   0.726   0.715   0.710   0.721   0.697   0.722   0.747   0.735   0.742   0.775   0.744   0.725   0.697   0.654   0.715   0.735   0.753   0.736   0.729   0.737   0.726   0.722   0.747   0.809   0.796   0.774   0.743   0.668   0.605   0.614   0.634   0.632   0.679   0.647   0.647   0.645   0.656   0.693   0.693   0.704   0.697   0.692   0.682   0.689   0.671   0.685   0.721   0.705   0.709   0.722   0.741   0.728   0.712   0.695   0.689   0.712   0.726   0.754   0.756   0.768   0.723   0.707   0.666   0.661   0.615   0.633   0.626   0.634   0.605   0.557   0.599   0.580   0.626   0.620   0.626   0.652   0.602   0.605   0.611   0.625   0.629   0.569   0.550   0.582   0.607   0.615   0.630   0.583   0.578   0.645   0.682   0.647   0.653   0.631   0.624   0.658   0.693   0.705   0.674   0.730   0.736   0.713   0.731   0.677   0.738   0.765   0.732   0.738   0.694   0.726   0.720   0.656   0.661   0.658   0.656   0.695   0.680   0.664   0.633   0.632   0.660   0.663   0.710   0.692   0.713   0.717   0.720   0.694   0.754   0.695   0.715   0.765   0.747   0.748   0.708   0.630   0.614   0.664   0.647   0.686   0.705   0.708   0.683   0.730   0.746   0.767   0.808   0.802   0.868   0.909   0.850   0.836   0.767   0.822   0.756   0.742   0.712   0.682   0.745   0.688   0.741   0.767   0.708   0.646   0.666   0.714   0.702   0.712   0.736   0.761   0.797   0.775   0.747   0.813   0.819   0.773   0.696   0.729   0.787   0.758   0.746   0.790   0.722   0.727
   280.00    0.674   0.653   0.650   0.623   0.641   0.680   0.703   0.766   0.755   0.729   0.715   0.738   0.727   0.727   0.722   0.778   0.762   0.781   0.735   0.799   0.771   0.759   0.695   0.675   0.758   0.763   0.756   0.748   0.727   0.725   0.700   0.725   0.744   0.768   0.743   0.751   0.718   0.664   0.592   0.627   0.658   0.659   0.684   0.638   0.677   0.685   0.683   0.719   0.692   0.708   0.710   0.702   0.682   0.728   0.686   0.681   0.689   0.710   0.697   0.693   0.711   0.706   0.716   0.704   0.712   0.710   0.752   0.728   0.764   0.716   0.692   0.654   0.660   0.670   0.642   0.600   0.597   0.612   0.548   0.599   0.589   0.619   0.633   0.626   0.633   0.637   0.632   0.571   0.587   0.574   0.605   0.579   0.587   0.591   0.626   0.613   0.594   0.615   0.625   0.642   0.620   0.634   0.640   0.645   0.713   0.696   0.721   0.687   0.749   0.794   0.750   0.724   0.716   0.759   0.757   0.741   0.734   0.664   0.710   0.689   0.644   0.624   0.622   0.596   0.634   0.687   0.651   0.630   0.629   0.654   0.673   0.658   0.673   0.727   0.715   0.762   0.749   0.730   0.682   0.713   0.733   0.781   0.725   0.692   0.675   0.617   0.680   0.669   0.690   0.728   0.740   0.739   0.761   0.739   0.766   0.771   0.830   0.870   0.889   0.846   0.788   0.766   0.789   0.773   0.804   0.718   0.723   0.735   0.711   0.679   0.695   0.733   0.666   0.662   0.722   0.750   0.711   0.715   0.738   0.753   0.748   0.749   0.798   0.775   0.796   0.716   0.759   0.793   0.800   0.803   0.761   0.760   0.753
   270.70    0.681   0.664   0.647   0.640   0.641   0.625   0.702   0.718   0.743   0.752   0.743   0.720   0.718   0.720   0.736   0.708   0.699   0.723   0.750   0.802   0.766   0.695   0.675   0.663   0.754   0.729   0.684   0.689   0.727   0.762   0.673   0.658   0.673   0.689   0.713   0.714   0.656   0.582   0.595   0.605   0.673   0.678   0.707   0.688   0.648   0.656   0.678   0.692   0.713   0.684   0.731   0.699   0.689   0.728   0.729   0.726   0.772   0.729   0.730   0.741   0.730   0.734   0.741   0.708   0.707   0.692   0.708   0.700   0.762   0.706   0.737   0.727   0.689   0.657   0.664   0.675   0.632   0.599   0.554   0.620   0.663   0.637   0.662   0.666   0.650   0.645   0.654   0.647   0.623   0.629   0.594   0.612   0.554   0.582   0.580   0.628   0.598   0.573   0.610   0.634   0.603   0.658   0.630   0.688   0.676   0.675   0.691   0.651   0.736   0.739   0.739   0.740   0.774   0.735   0.758   0.728   0.716   0.697   0.700   0.668   0.646   0.625   0.636   0.603   0.623   0.679   0.676   0.658   0.622   0.657   0.681   0.667   0.703   0.693   0.716   0.684   0.686   0.705   0.665   0.672   0.660   0.726   0.747   0.674   0.677   0.655   0.662   0.702   0.716   0.733   0.732   0.732   0.808   0.800   0.837   0.870   0.912   0.883   0.921   0.883   0.803   0.781   0.778   0.829   0.846   0.781   0.788   0.749   0.706   0.676   0.710   0.693   0.700   0.665   0.693   0.719   0.703   0.718   0.743   0.744   0.746   0.752   0.802   0.779   0.803   0.750   0.770   0.757   0.765   0.815   0.750   0.716   0.700
   261.40    0.686   0.685   0.674   0.686   0.617   0.630   0.694   0.713   0.725   0.750   0.687   0.668   0.657   0.639   0.694   0.689   0.748   0.720   0.758   0.767   0.749   0.729   0.700   0.711   0.733   0.738   0.682   0.668   0.687   0.686   0.664   0.669   0.641   0.670   0.678   0.667   0.663   0.589   0.607   0.642   0.698   0.687   0.717   0.648   0.665   0.661   0.661   0.676   0.694   0.707   0.772   0.760   0.715   0.756   0.731   0.745   0.744   0.768   0.714   0.698   0.731   0.758   0.788   0.727   0.713   0.723   0.703   0.712   0.769   0.735   0.750   0.744   0.687   0.663   0.660   0.640   0.652   0.615   0.591   0.600   0.631   0.658   0.656   0.638   0.679   0.664   0.662   0.666   0.644   0.613   0.608   0.582   0.566   0.596   0.596   0.652   0.678   0.621   0.612   0.653   0.627   0.664   0.639   0.700   0.689   0.697   0.697   0.677   0.747   0.699   0.727   0.730   0.752   0.682   0.689   0.662   0.689   0.714   0.701   0.696   0.697   0.631   0.594   0.626   0.648   0.701   0.680   0.630   0.671   0.695   0.731   0.671   0.623   0.635   0.661   0.658   0.634   0.662   0.657   0.681   0.711   0.690   0.727   0.716   0.702   0.672   0.688   0.727   0.695   0.729   0.724   0.779   0.780   0.778   0.819   0.837   0.822   0.847   0.913   0.884   0.872   0.786   0.806   0.817   0.816   0.786   0.773   0.736   0.701   0.690   0.679   0.703   0.691   0.683   0.714   0.664   0.660   0.693   0.750   0.774   0.750   0.720   0.781   0.794   0.736   0.788   0.801   0.817   0.825   0.841   0.796   0.706   0.644
   252.10    0.677   0.704   0.724   0.643   0.614   0.659   0.710   0.645   0.656   0.693   0.717   0.669   0.651   0.637   0.613   0.637   0.727   0.729   0.738   0.766   0.738   0.725   0.739   0.748   0.727   0.688   0.681   0.672   0.637   0.675   0.672   0.662   0.624   0.667   0.679   0.701   0.644   0.622   0.615   0.613   0.647   0.726   0.711   0.697   0.659   0.683   0.645   0.634   0.655   0.683   0.704   0.704   0.755   0.712   0.728   0.701   0.682   0.721   0.702   0.661   0.668   0.753   0.797   0.758   0.700   0.682   0.735   0.731   0.748   0.757   0.749   0.707   0.648   0.650   0.669   0.621   0.655   0.619   0.628   0.612   0.677   0.635   0.629   0.620   0.612   0.626   0.635   0.626   0.647   0.636   0.649   0.594   0.592   0.570   0.584   0.611   0.632   0.643   0.626   0.676   0.648   0.613   0.635   0.650   0.678   0.676   0.720   0.714   0.691   0.696   0.693   0.736   0.733   0.667   0.714   0.631   0.652   0.685   0.715   0.741   0.756   0.642   0.637   0.628   0.665   0.685   0.657   0.613   0.691   0.697   0.676   0.695   0.602   0.626   0.672   0.634   0.659   0.634   0.637   0.623   0.675   0.679   0.735   0.731   0.705   0.690   0.732   0.771   0.748   0.734   0.718   0.758   0.790   0.803   0.850   0.838   0.848   0.809   0.878   0.868   0.898   0.847   0.848   0.855   0.855   0.746   0.713   0.681   0.671   0.689   0.686   0.701   0.659   0.669   0.726   0.697   0.698   0.732   0.765   0.782   0.782   0.752   0.778   0.830   0.806   0.838   0.840   0.804   0.779   0.805   0.791   0.707   0.681
   242.80    0.621   0.672   0.673   0.638   0.686   0.702   0.726   0.655   0.661   0.717   0.718   0.656   0.600   0.603   0.613   0.659   0.710   0.711   0.724   0.777   0.765   0.741   0.772   0.773   0.732   0.712   0.664   0.653   0.649   0.663   0.658   0.648   0.621   0.646   0.653   0.699   0.708   0.637   0.597   0.606   0.630   0.667   0.655   0.717   0.697   0.692   0.686   0.631   0.605   0.645   0.672   0.675   0.691   0.706   0.708   0.713   0.684   0.699   0.656   0.650   0.647   0.707   0.733   0.717   0.729   0.726   0.731   0.725   0.791   0.771   0.732   0.676   0.632   0.656   0.629   0.635   0.664   0.627   0.652   0.667   0.636   0.632   0.581   0.597   0.593   0.589   0.619   0.643   0.629   0.659   0.649   0.676   0.638   0.584   0.587   0.612   0.647   0.655   0.663   0.721   0.685   0.685   0.677   0.653   0.654   0.630   0.678   0.722   0.669   0.683   0.670   0.686   0.685   0.685   0.688   0.673   0.716   0.727   0.724   0.743   0.687   0.663   0.621   0.638   0.670   0.650   0.618   0.678   0.706   0.716   0.673   0.668   0.660   0.654   0.645   0.610   0.653   0.643   0.617   0.609   0.674   0.664   0.731   0.705   0.730   0.742   0.765   0.746   0.734   0.748   0.723   0.778   0.791   0.856   0.846   0.848   0.810   0.834   0.845   0.893   0.905   0.870   0.899   0.867   0.868   0.779   0.749   0.714   0.737   0.685   0.690   0.687   0.687   0.693   0.691   0.662   0.721   0.710   0.779   0.785   0.734   0.767   0.719   0.774   0.831   0.825   0.788   0.803   0.778   0.740   0.723   0.724   0.629
   233.50    0.613   0.672   0.692   0.661   0.680   0.664   0.673   0.632   0.681   0.700   0.664   0.595   0.588   0.581   0.596   0.636   0.636   0.701   0.674   0.710   0.686   0.739   0.721   0.794   0.726   0.685   0.699   0.631   0.649   0.636   0.653   0.691   0.661   0.646   0.624   0.666   0.689   0.682   0.662   0.650   0.636   0.625   0.654   0.719   0.722   0.673   0.649   0.629   0.611   0.634   0.657   0.656   0.670   0.673   0.634   0.663   0.685   0.635   0.658   0.611   0.612   0.653   0.693   0.688   0.715   0.725   0.710   0.717   0.775   0.795   0.776   0.711   0.650   0.656   0.638   0.650   0.666   0.639   0.683   0.652   0.615   0.623   0.583   0.614   0.601   0.606   0.578   0.585   0.587   0.608   0.645   0.654   0.647   0.659   0.656   0.638   0.593   0.639   0.704   0.711   0.666   0.691   0.696   0.719   0.690   0.726   0.687   0.705   0.619   0.673   0.693   0.653   0.649   0.675   0.688   0.706   0.684   0.711   0.709   0.702   0.722   0.682   0.638   0.722   0.700   0.671   0.647   0.673   0.675   0.686   0.725   0.707   0.697   0.691   0.663   0.644   0.641   0.677   0.644   0.648   0.667   0.664   0.677   0.701   0.749   0.733   0.759   0.734   0.727   0.726   0.753   0.741   0.806   0.821   0.869   0.847   0.810   0.849   0.844   0.884   0.874   0.924   0.891   0.864   0.808   0.810   0.760   0.750   0.722   0.694   0.728   0.711   0.675   0.673   0.653   0.663   0.662   0.713   0.718   0.749   0.743   0.736   0.702   0.760   0.763   0.835   0.844   0.748   0.750   0.763   0.715   0.680   0.597
   224.20    0.600   0.628   0.650   0.667   0.688   0.620   0.686   0.647   0.617   0.641   0.641   0.624   0.555   0.568   0.598   0.610   0.611   0.673   0.674   0.668   0.690   0.744   0.743   0.733   0.740   0.746   0.722   0.665   0.616   0.629   0.657   0.687   0.658   0.679   0.669   0.620   0.649   0.690   0.681   0.681   0.633   0.621   0.664   0.726   0.698   0.720   0.671   0.638   0.608   0.611   0.667   0.706   0.652   0.670   0.645   0.633   0.614   0.605   0.570   0.601   0.668   0.720   0.696   0.656   0.657   0.686   0.723   0.670   0.730   0.770   0.768   0.681   0.654   0.649   0.604   0.595   0.645   0.655   0.645   0.661   0.652   0.646   0.619   0.581   0.597   0.616   0.554   0.574   0.593   0.610   0.628   0.655   0.685   0.646   0.669   0.672   0.660   0.656   0.682   0.735   0.721   0.757   0.740   0.763   0.737   0.737   0.741   0.659   0.688   0.696   0.722   0.673   0.636   0.682   0.652   0.691   0.683   0.656   0.640   0.646   0.636   0.613   0.636   0.664   0.695   0.688   0.656   0.680   0.680   0.709   0.733   0.698   0.716   0.663   0.668   0.714   0.652   0.716   0.672   0.631   0.694   0.669   0.687   0.677   0.709   0.759   0.742   0.683   0.695   0.676   0.722   0.705   0.804   0.833   0.828   0.842   0.822   0.843   0.868   0.852   0.845   0.880   0.844   0.826   0.807   0.748   0.778   0.735   0.724   0.696   0.717   0.779   0.735   0.657   0.644   0.621   0.657   0.674   0.668   0.696   0.731   0.763   0.748   0.779   0.772   0.846   0.781   0.752   0.707   0.766   0.688   0.683   0.642
   214.90    0.604   0.658   0.709   0.664   0.683   0.687   0.631   0.648   0.564   0.590   0.583   0.624   0.564   0.600   0.623   0.597   0.564   0.627   0.676   0.625   0.659   0.716   0.720   0.729   0.712   0.697   0.679   0.645   0.653   0.587   0.625   0.655   0.685   0.643   0.643   0.638   0.602   0.648   0.657   0.693   0.654   0.674   0.722   0.703   0.717   0.664   0.697   0.636   0.611   0.619   0.667   0.679   0.705   0.679   0.667   0.620   0.611   0.594   0.644   0.674   0.745   0.746   0.733   0.669   0.678   0.714   0.726   0.699   0.680   0.692   0.730   0.653   0.647   0.626   0.581   0.615   0.641   0.669   0.659   0.655   0.622   0.668   0.606   0.590   0.620   0.597   0.580   0.583   0.605   0.606   0.645   0.662   0.638   0.686   0.668   0.653   0.643   0.655   0.679   0.690   0.714   0.727   0.759   0.768   0.722   0.755   0.709   0.677   0.692   0.677   0.709   0.672   0.670   0.650   0.700   0.688   0.678   0.664   0.655   0.675   0.643   0.630   0.669   0.685   0.643   0.650   0.688   0.664   0.679   0.715   0.663   0.712   0.702   0.726   0.705   0.729   0.693   0.696   0.667   0.693   0.681   0.675   0.666   0.723   0.699   0.723   0.755   0.734   0.707   0.692   0.679   0.693   0.776   0.836   0.850   0.823   0.858   0.885   0.871   0.829   0.835   0.845   0.799   0.807   0.799   0.793   0.809   0.796   0.796   0.735   0.775   0.746   0.708   0.688   0.700   0.719   0.646   0.680   0.675   0.709   0.670   0.705   0.744   0.728   0.740   0.782   0.788   0.689   0.680   0.717   0.742   0.729   0.675
   205.60    0.595   0.622   0.608   0.657   0.673   0.671   0.641   0.607   0.634   0.565   0.579   0.606   0.574   0.584   0.611   0.580   0.595   0.613   0.678   0.640   0.640   0.703   0.694   0.692   0.706   0.638   0.649   0.640   0.638   0.592   0.606   0.644   0.659   0.635   0.623   0.647   0.636   0.627   0.671   0.655   0.659   0.709   0.719   0.739   0.675   0.692   0.693   0.640   0.646   0.657   0.645   0.690   0.721   0.685   0.650   0.602   0.619   0.604   0.632   0.705   0.736   0.734   0.733   0.719   0.742   0.673   0.702   0.677   0.648   0.650   0.677   0.668   0.634   0.600   0.619   0.594   0.662   0.739   0.718   0.709   0.702   0.709   0.665   0.615   0.631   0.621   0.565   0.564   0.596   0.608   0.590   0.619   0.675   0.667   0.691   0.669   0.672   0.640   0.688   0.676   0.676   0.717   0.718   0.758   0.761   0.739   0.697   0.668   0.700   0.647   0.625   0.643   0.608   0.651   0.663   0.678   0.654   0.630   0.650   0.668   0.648   0.658   0.702   0.690   0.686   0.691   0.654   0.649   0.653   0.661   0.684   0.698   0.684   0.771   0.722   0.722   0.700   0.727   0.694   0.688   0.711   0.683   0.672   0.704   0.654   0.726   0.712   0.663   0.664   0.667   0.677   0.709   0.739   0.847   0.879   0.826   0.848   0.826   0.871   0.825   0.820   0.855   0.801   0.785   0.781   0.749   0.774   0.773   0.782   0.748   0.776   0.727   0.680   0.666   0.665   0.708   0.672   0.678   0.680   0.679   0.695   0.688   0.716   0.732   0.722   0.762   0.767   0.710   0.678   0.724   0.760   0.754   0.696
   196.30    0.605   0.606   0.606   0.688   0.676   0.658   0.626   0.621   0.649   0.603   0.586   0.581   0.609   0.638   0.626   0.599   0.609   0.621   0.644   0.674   0.613   0.658   0.716   0.681   0.652   0.640   0.595   0.630   0.613   0.599   0.598   0.617   0.610   0.634   0.665   0.672   0.681   0.669   0.668   0.650   0.681   0.705   0.684   0.683   0.638   0.688   0.639   0.629   0.643   0.669   0.666   0.656   0.672   0.686   0.648   0.648   0.698   0.695   0.674   0.701   0.720   0.719   0.736   0.747   0.737   0.701   0.718   0.684   0.693   0.666   0.673   0.657   0.631   0.622   0.625   0.641   0.680   0.686   0.703   0.749   0.730   0.670   0.677   0.615   0.621   0.575   0.562   0.575   0.591   0.559   0.588   0.569   0.635   0.621   0.619   0.659   0.671   0.698   0.698   0.641   0.688   0.707   0.705   0.729   0.720   0.703   0.642   0.653   0.642   0.621   0.657   0.663   0.637   0.648   0.673   0.621   0.603   0.652   0.673   0.664   0.630   0.673   0.664   0.700   0.668   0.680   0.664   0.651   0.694   0.697   0.695   0.669   0.723   0.732   0.707   0.710   0.711   0.702   0.703   0.685   0.727   0.718   0.686   0.705   0.690   0.670   0.712   0.708   0.661   0.691   0.702   0.735   0.769   0.822   0.794   0.795   0.799   0.812   0.820   0.842   0.817   0.875   0.847   0.823   0.725   0.768   0.789   0.787   0.771   0.788   0.771   0.744   0.671   0.686   0.627   0.629   0.639   0.643   0.654   0.682   0.652   0.716   0.697   0.695   0.689   0.711   0.716   0.695   0.724   0.736   0.743   0.738   0.664
   187.00    0.617   0.569   0.562   0.605   0.599   0.606   0.616   0.649   0.635   0.613   0.592   0.598   0.582   0.568   0.635   0.683   0.694   0.680   0.658   0.666   0.664   0.668   0.683   0.680   0.594   0.606   0.646   0.621   0.629   0.617   0.633   0.640   0.616   0.669   0.683   0.731   0.734   0.732   0.721   0.702   0.674   0.695   0.679   0.657   0.627   0.623   0.627   0.620   0.633   0.617   0.638   0.631   0.622   0.660   0.613   0.620   0.645   0.648   0.705   0.702   0.709   0.743   0.770   0.765   0.747   0.733   0.704   0.653   0.665   0.677   0.667   0.618   0.623   0.632   0.630   0.651   0.649   0.673   0.702   0.719   0.685   0.672   0.633   0.605   0.570   0.597   0.662   0.633   0.652   0.612   0.621   0.568   0.594   0.613   0.623   0.674   0.656   0.674   0.677   0.646   0.663   0.701   0.703   0.684   0.657   0.657   0.622   0.615   0.603   0.642   0.656   0.703   0.674   0.614   0.596   0.658   0.626   0.655   0.657   0.620   0.609   0.631   0.637   0.649   0.646   0.674   0.703   0.674   0.692   0.729   0.719   0.696   0.639   0.697   0.706   0.693   0.702   0.696   0.697   0.658   0.741   0.764   0.713   0.730   0.716   0.717   0.714   0.709   0.675   0.679   0.714   0.748   0.724   0.731   0.733   0.783   0.742   0.772   0.826   0.825   0.785   0.805   0.773   0.738   0.728   0.734   0.763   0.735   0.762   0.730   0.730   0.689   0.684   0.657   0.599   0.581   0.590   0.599   0.620   0.594   0.641   0.725   0.685   0.706   0.617   0.668   0.669   0.643   0.753   0.748   0.743   0.672   0.658
   177.70    0.651   0.618   0.577   0.576   0.582   0.607   0.602   0.650   0.624   0.653   0.587   0.553   0.572   0.540   0.631   0.690   0.704   0.716   0.719   0.708   0.685   0.656   0.671   0.630   0.618   0.651   0.682   0.629   0.619   0.630   0.610   0.649   0.630   0.657   0.683   0.693   0.702   0.684   0.702   0.693   0.685   0.697   0.638   0.637   0.655   0.618   0.622   0.599   0.586   0.598   0.639   0.588   0.635   0.657   0.621   0.598   0.623   0.655   0.697   0.686   0.673   0.714   0.711   0.699   0.717   0.735   0.699   0.669   0.687   0.707   0.665   0.601   0.635   0.641   0.617   0.664   0.692   0.698   0.724   0.709   0.677   0.665   0.631   0.556   0.556   0.559   0.610   0.616   0.617   0.633   0.603   0.592   0.575   0.601   0.586   0.628   0.619   0.634   0.636   0.635   0.673   0.636   0.639   0.641   0.681   0.633   0.630   0.591   0.625   0.684   0.661   0.695   0.664   0.676   0.681   0.653   0.661   0.668   0.667   0.631   0.613   0.613   0.589   0.604   0.645   0.641   0.704   0.709   0.742   0.724   0.663   0.670   0.668   0.699   0.697   0.669   0.700   0.668   0.669   0.657   0.731   0.754   0.753   0.729   0.744   0.757   0.759   0.778   0.735   0.693   0.724   0.760   0.746   0.769   0.691   0.714   0.725   0.796   0.774   0.753   0.774   0.751   0.743   0.741   0.726   0.734   0.735   0.753   0.710   0.705   0.707   0.681   0.664   0.637   0.600   0.596   0.571   0.586   0.580   0.617   0.674   0.677   0.723   0.688   0.646   0.671   0.662   0.647   0.701   0.711   0.689   0.653   0.626
   168.40    0.674   0.690   0.633   0.613   0.590   0.554   0.598   0.608   0.586   0.603   0.605   0.559   0.567   0.601   0.642   0.666   0.720   0.694   0.737   0.720   0.688   0.672   0.676   0.674   0.655   0.655   0.717   0.662   0.652   0.644   0.637   0.638   0.624   0.638   0.653   0.698   0.669   0.690   0.735   0.665   0.718   0.699   0.687   0.720   0.705   0.678   0.653   0.617   0.621   0.656   0.634   0.626   0.634   0.648   0.658   0.613   0.632   0.664   0.682   0.648   0.667   0.671   0.677   0.688   0.676   0.680   0.676   0.637   0.656   0.715   0.677   0.639   0.611   0.605   0.616   0.671   0.667   0.673   0.687   0.685   0.724   0.670   0.641   0.603   0.578   0.560   0.577   0.602   0.634   0.636   0.630   0.613   0.583   0.590   0.600   0.662   0.621   0.629   0.626   0.628   0.627   0.660   0.655   0.645   0.632   0.635   0.623   0.624   0.623   0.628   0.594   0.672   0.704   0.678   0.670   0.657   0.683   0.695   0.737   0.696   0.670   0.662   0.604   0.668   0.707   0.714   0.733   0.760   0.795   0.714   0.639   0.649   0.645   0.628   0.640   0.685   0.674   0.672   0.702   0.702   0.696   0.720   0.756   0.731   0.738   0.742   0.764   0.751   0.744   0.704   0.698   0.768   0.727   0.681   0.650   0.670   0.713   0.767   0.732   0.784   0.735   0.741   0.733   0.775   0.754   0.739   0.766   0.702   0.682   0.670   0.644   0.683   0.686   0.649   0.635   0.615   0.632   0.612   0.622   0.598   0.673   0.688   0.702   0.688   0.720   0.676   0.687   0.690   0.689   0.650   0.672   0.655   0.562
   159.10    0.687   0.659   0.663   0.591   0.574   0.623   0.565   0.550   0.568   0.561   0.574   0.578   0.572   0.616   0.701   0.681   0.712   0.715   0.716   0.707   0.689   0.692   0.655   0.690   0.645   0.663   0.670   0.671   0.665   0.669   0.635   0.628   0.623   0.621   0.635   0.661   0.670   0.712   0.756   0.694   0.714   0.721   0.727   0.738   0.702   0.650   0.664   0.629   0.614   0.631   0.633   0.582   0.598   0.629   0.571   0.634   0.650   0.674   0.663   0.606   0.613   0.592   0.618   0.658   0.664   0.654   0.658   0.644   0.626   0.701   0.666   0.668   0.636   0.596   0.599   0.609   0.639   0.643   0.632   0.655   0.643   0.606   0.570   0.582   0.565   0.562   0.579   0.578   0.652   0.702   0.660   0.596   0.556   0.599   0.612   0.625   0.674   0.657   0.613   0.640   0.601   0.672   0.674   0.662   0.644   0.641   0.635   0.644   0.655   0.621   0.629   0.690   0.660   0.670   0.638   0.626   0.693   0.693   0.663   0.711   0.718   0.694   0.696   0.659   0.666   0.707   0.711   0.746   0.798   0.753   0.721   0.690   0.693   0.670   0.650   0.684   0.695   0.675   0.696   0.733   0.729   0.706   0.767   0.767   0.755   0.758   0.751   0.768   0.715   0.737   0.715   0.748   0.735   0.665   0.655   0.655   0.724   0.747   0.769   0.741   0.714   0.661   0.675   0.750   0.825   0.798   0.791   0.726   0.696   0.702   0.706   0.703   0.696   0.699   0.674   0.661   0.664   0.672   0.659   0.657   0.630   0.711   0.652   0.682   0.718   0.679   0.647   0.705   0.701   0.703   0.689   0.658   0.582
   149.80    0.686   0.652   0.654   0.653   0.635   0.639   0.609   0.564   0.567   0.571   0.558   0.568   0.614   0.649   0.718   0.718   0.698   0.745   0.729   0.734   0.723   0.695   0.690   0.704   0.701   0.712   0.681   0.701   0.693   0.659   0.648   0.653   0.607   0.592   0.604   0.661   0.688   0.704   0.750   0.730   0.682   0.674   0.723   0.692   0.677   0.675   0.634   0.624   0.647   0.617   0.641   0.637   0.581   0.616   0.603   0.641   0.653   0.652   0.635   0.612   0.606   0.649   0.594   0.595   0.592   0.603   0.629   0.644   0.626   0.669   0.702   0.681   0.673   0.634   0.637   0.631   0.624   0.587   0.632   0.676   0.614   0.622   0.588   0.571   0.521   0.555   0.564   0.631   0.648   0.656   0.647   0.656   0.608   0.602   0.628   0.656   0.720   0.676   0.618   0.597   0.614   0.617   0.688   0.652   0.652   0.663   0.637   0.652   0.663   0.644   0.641   0.667   0.638   0.646   0.634   0.683   0.711   0.704   0.677   0.684   0.737   0.722   0.682   0.729   0.708   0.681   0.701   0.718   0.760   0.761   0.721   0.720   0.720   0.704   0.704   0.701   0.695   0.697   0.702   0.736   0.706   0.736   0.780   0.758   0.743   0.756   0.705   0.686   0.718   0.735   0.733   0.763   0.688   0.661   0.665   0.727   0.744   0.749   0.723   0.699   0.723   0.714   0.699   0.714   0.780   0.780   0.720   0.731   0.683   0.710   0.694   0.684   0.672   0.654   0.655   0.631   0.608   0.652   0.663   0.618   0.658   0.675   0.716   0.663   0.660   0.684   0.653   0.691   0.698   0.669   0.695   0.604   0.590
   140.50    0.691   0.672   0.639   0.580   0.635   0.620   0.563   0.569   0.581   0.595   0.576   0.563   0.584   0.672   0.710   0.718   0.738   0.760   0.744   0.777   0.757   0.712   0.724   0.736   0.736   0.739   0.711   0.654   0.673   0.649   0.688   0.676   0.650   0.665   0.641   0.664   0.641   0.736   0.750   0.730   0.747   0.698   0.718   0.694   0.633   0.612   0.610   0.666   0.683   0.668   0.619   0.585   0.572   0.603   0.591   0.594   0.591   0.605   0.592   0.612   0.666   0.640   0.591   0.569   0.569   0.588   0.599   0.627   0.662   0.663   0.701   0.721   0.719   0.664   0.607   0.590   0.646   0.643   0.644   0.676   0.644   0.586   0.595   0.575   0.586   0.553   0.578   0.574   0.653   0.686   0.668   0.687   0.671   0.634   0.692   0.685   0.704   0.674   0.617   0.635   0.632   0.629   0.706   0.721   0.697   0.654   0.651   0.676   0.676   0.683   0.666   0.597   0.654   0.655   0.687   0.705   0.739   0.745   0.705   0.691   0.741   0.795   0.761   0.737   0.674   0.658   0.724   0.733   0.747   0.743   0.731   0.720   0.765   0.743   0.740   0.731   0.737   0.699   0.710   0.747   0.761   0.759   0.788   0.776   0.771   0.730   0.675   0.659   0.658   0.727   0.771   0.770   0.703   0.661   0.684   0.756   0.752   0.741   0.763   0.731   0.713   0.716   0.764   0.786   0.761   0.758   0.762   0.733   0.734   0.729   0.734   0.723   0.685   0.637   0.579   0.615   0.593   0.621   0.609   0.625   0.641   0.664   0.666   0.701   0.672   0.678   0.718   0.686   0.636   0.659   0.653   0.665   0.581
   131.20    0.743   0.702   0.624   0.651   0.630   0.607   0.599   0.558   0.558   0.552   0.599   0.560   0.582   0.662   0.682   0.710   0.759   0.720   0.777   0.752   0.768   0.819   0.806   0.752   0.775   0.763   0.687   0.678   0.647   0.647   0.631   0.678   0.728   0.751   0.707   0.699   0.697   0.777   0.800   0.761   0.730   0.680   0.733   0.691   0.659   0.642   0.642   0.661   0.659   0.677   0.662   0.643   0.562   0.582   0.576   0.587   0.596   0.613   0.644   0.638   0.593   0.625   0.588   0.615   0.580   0.588   0.608   0.617   0.614   0.686   0.709   0.692   0.721   0.716   0.658   0.636   0.637   0.632   0.676   0.664   0.651   0.586   0.564   0.578   0.569   0.549   0.565   0.600   0.622   0.628   0.630   0.626   0.651   0.666   0.699   0.643   0.684   0.661   0.673   0.717   0.675   0.694   0.671   0.742   0.715   0.684   0.725   0.686   0.723   0.689   0.703   0.710   0.678   0.665   0.658   0.728   0.736   0.731   0.716   0.708   0.763   0.767   0.772   0.768   0.737   0.719   0.763   0.726   0.774   0.784   0.792   0.782   0.776   0.765   0.743   0.722   0.786   0.752   0.704   0.756   0.784   0.790   0.782   0.727   0.718   0.696   0.683   0.653   0.694   0.738   0.766   0.739   0.709   0.696   0.709   0.723   0.738   0.767   0.755   0.721   0.754   0.732   0.742   0.750   0.749   0.750   0.739   0.785   0.805   0.776   0.794   0.743   0.699   0.627   0.597   0.633   0.632   0.601   0.618   0.592   0.629   0.660   0.638   0.655   0.657   0.661   0.697   0.664   0.690   0.655   0.604   0.639   0.670
   121.90    0.792   0.743   0.703   0.656   0.666   0.637   0.605   0.583   0.594   0.609   0.585   0.602   0.627   0.668   0.689   0.691   0.746   0.732   0.763   0.783   0.766   0.787   0.801   0.756   0.789   0.732   0.728   0.681   0.632   0.628   0.639   0.680   0.695   0.700   0.706   0.656   0.698   0.722   0.752   0.747   0.708   0.671   0.707   0.723   0.707   0.743   0.677   0.605   0.649   0.627   0.650   0.618   0.543   0.549   0.582   0.611   0.634   0.598   0.621   0.600   0.580   0.611   0.612   0.625   0.602   0.590   0.618   0.595   0.599   0.684   0.654   0.659   0.682   0.662   0.662   0.636   0.668   0.603   0.610   0.652   0.638   0.600   0.591   0.554   0.615   0.603   0.623   0.568   0.635   0.623   0.622   0.638   0.645   0.640   0.670   0.659   0.689   0.699   0.657   0.737   0.770   0.705   0.691   0.703   0.680   0.692   0.696   0.694   0.709   0.678   0.706   0.715   0.641   0.655   0.686   0.723   0.764   0.748   0.712   0.736   0.797   0.808   0.804   0.818   0.766   0.782   0.784   0.797   0.785   0.763   0.782   0.767   0.796   0.819   0.774   0.848   0.835   0.758   0.784   0.773   0.778   0.766   0.751   0.705   0.693   0.705   0.667   0.704   0.745   0.727   0.729   0.731   0.738   0.724   0.695   0.738   0.748   0.723   0.756   0.775   0.730   0.725   0.657   0.734   0.730   0.715   0.754   0.775   0.775   0.815   0.765   0.755   0.729   0.705   0.671   0.675   0.670   0.652   0.645   0.638   0.649   0.658   0.608   0.641   0.629   0.640   0.707   0.666   0.711   0.693   0.696   0.647   0.642
   112.60    0.740   0.758   0.790   0.759   0.726   0.711   0.588   0.601   0.583   0.609   0.599   0.645   0.630   0.631   0.642   0.688   0.717   0.756   0.762   0.799   0.834   0.839   0.777   0.791   0.746   0.700   0.681   0.674   0.648   0.603   0.646   0.642   0.640   0.669   0.731   0.708   0.715   0.751   0.723   0.704   0.711   0.687   0.679   0.766   0.738   0.772   0.734   0.663   0.607   0.598   0.648   0.612   0.509   0.545   0.567   0.605   0.595   0.593   0.617   0.582   0.600   0.594   0.641   0.661   0.643   0.623   0.632   0.609   0.638   0.632   0.663   0.642   0.616   0.646   0.625   0.697   0.650   0.595   0.649   0.625   0.625   0.619   0.614   0.641   0.628   0.625   0.601   0.588   0.616   0.636   0.601   0.627   0.631   0.675   0.681   0.641   0.679   0.671   0.752   0.741   0.716   0.749   0.712   0.665   0.687   0.725   0.726   0.706   0.696   0.689   0.668   0.689   0.689   0.689   0.710   0.764   0.764   0.718   0.750   0.762   0.757   0.796   0.781   0.765   0.837   0.796   0.815   0.781   0.772   0.735   0.787   0.776   0.775   0.804   0.807   0.816   0.841   0.804   0.797   0.782   0.774   0.780   0.720   0.728   0.704   0.720   0.716   0.730   0.741   0.753   0.763   0.746   0.697   0.704   0.724   0.707   0.690   0.707   0.757   0.765   0.753   0.736   0.690   0.709   0.709   0.711   0.730   0.776   0.758   0.742   0.738   0.767   0.725   0.714   0.653   0.624   0.629   0.638   0.645   0.670   0.660   0.652   0.656   0.671   0.641   0.667   0.688   0.647   0.696   0.681   0.694   0.646   0.663
   103.30    0.706   0.750   0.766   0.764   0.698   0.717   0.679   0.619   0.586   0.612   0.638   0.610   0.672   0.626   0.650   0.691   0.734   0.768   0.813   0.837   0.786   0.803   0.831   0.781   0.762   0.673   0.683   0.675   0.662   0.704   0.662   0.665   0.666   0.672   0.697   0.665   0.723   0.710   0.713   0.707   0.662   0.653   0.673   0.698   0.714   0.729   0.695   0.688   0.608   0.609   0.584   0.593   0.558   0.528   0.546   0.596   0.581   0.579   0.552   0.557   0.582   0.597   0.640   0.644   0.608   0.644   0.670   0.599   0.643   0.630   0.666   0.660   0.636   0.642   0.665   0.618   0.639   0.629   0.631   0.656   0.622   0.595   0.567   0.611   0.626   0.637   0.606   0.636   0.667   0.650   0.654   0.627   0.668   0.646   0.705   0.736   0.655   0.738   0.774   0.726   0.716   0.683   0.698   0.712   0.743   0.715   0.688   0.688   0.694   0.674   0.657   0.717   0.729   0.719   0.716   0.759   0.743   0.781   0.778   0.782   0.781   0.797   0.806   0.747   0.783   0.790   0.787   0.774   0.763   0.792   0.786   0.770   0.771   0.757   0.728   0.793   0.824   0.846   0.743   0.773   0.790   0.749   0.710   0.736   0.702   0.710   0.718   0.722   0.770   0.776   0.780   0.702   0.727   0.671   0.697   0.721   0.667   0.686   0.734   0.745   0.720   0.683   0.652   0.721   0.684   0.709   0.722   0.698   0.717   0.696   0.732   0.737   0.723   0.697   0.633   0.633   0.677   0.643   0.637   0.639   0.630   0.671   0.654   0.689   0.665   0.677   0.701   0.693   0.677   0.674   0.709   0.674   0.686
    94.00    0.687   0.710   0.728   0.710   0.694   0.704   0.732   0.700   0.627   0.636   0.659   0.641   0.646   0.654   0.707   0.717   0.691   0.723   0.786   0.787   0.790   0.765   0.813   0.848   0.777   0.693   0.662   0.704   0.720   0.735   0.695   0.699   0.674   0.702   0.686   0.696   0.685   0.697   0.656   0.653   0.669   0.637   0.661   0.635   0.693   0.700   0.678   0.663   0.638   0.628   0.541   0.557   0.521   0.529   0.555   0.569   0.560   0.581   0.556   0.583   0.572   0.575   0.606   0.619   0.602   0.678   0.675   0.633   0.629   0.653   0.666   0.650   0.594   0.658   0.700   0.631   0.597   0.575   0.570   0.598   0.601   0.558   0.552   0.584   0.596   0.600   0.631   0.666   0.680   0.659   0.631   0.621   0.677   0.667   0.701   0.713   0.665   0.711   0.762   0.780   0.726   0.714   0.698   0.737   0.775   0.741   0.691   0.674   0.704   0.647   0.683   0.743   0.787   0.756   0.736   0.741   0.751   0.795   0.798   0.783   0.829   0.804   0.762   0.779   0.815   0.809   0.768   0.786   0.795   0.743   0.778   0.727   0.739   0.767   0.790   0.752   0.839   0.816   0.798   0.733   0.742   0.729   0.737   0.725   0.663   0.681   0.697   0.722   0.781   0.801   0.815   0.744   0.728   0.731   0.700   0.774   0.689   0.707   0.753   0.731   0.716   0.680   0.655   0.726   0.771   0.722   0.697   0.670   0.681   0.741   0.757   0.683   0.695   0.691   0.673   0.692   0.723   0.638   0.594   0.618   0.590   0.628   0.635   0.660   0.688   0.611   0.628   0.630   0.701   0.683   0.655   0.682   0.668
    84.70    0.620   0.645   0.705   0.684   0.690   0.731   0.724   0.705   0.685   0.682   0.690   0.659   0.664   0.648   0.650   0.673   0.692   0.680   0.711   0.733   0.781   0.794   0.771   0.824   0.822   0.757   0.709   0.742   0.704   0.699   0.650   0.654   0.668   0.651   0.612   0.675   0.653   0.663   0.680   0.660   0.659   0.694   0.689   0.652   0.694   0.687   0.660   0.658   0.635   0.610   0.573   0.577   0.551   0.564   0.539   0.525   0.508   0.531   0.523   0.563   0.612   0.621   0.546   0.591   0.676   0.677   0.695   0.621   0.642   0.622   0.622   0.620   0.642   0.644   0.682   0.686   0.630   0.584   0.614   0.608   0.591   0.572   0.578   0.573   0.592   0.602   0.623   0.648   0.649   0.680   0.652   0.614   0.659   0.643   0.670   0.667   0.679   0.697   0.730   0.756   0.711   0.722   0.794   0.755   0.804   0.719   0.702   0.699   0.690   0.691   0.701   0.745   0.770   0.770   0.756   0.767   0.779   0.783   0.771   0.810   0.834   0.783   0.785   0.828   0.857   0.815   0.771   0.781   0.739   0.763   0.763   0.751   0.796   0.822   0.779   0.759   0.811   0.750   0.758   0.690   0.679   0.683   0.716   0.730   0.696   0.678   0.687   0.716   0.758   0.776   0.811   0.749   0.685   0.702   0.739   0.758   0.732   0.718   0.760   0.754   0.724   0.694   0.723   0.728   0.728   0.697   0.674   0.677   0.704   0.711   0.730   0.724   0.715   0.672   0.672   0.721   0.701   0.686   0.639   0.622   0.618   0.606   0.639   0.667   0.664   0.634   0.622   0.613   0.624   0.681   0.675   0.650   0.676
    75.40    0.605   0.635   0.667   0.672   0.705   0.755   0.725   0.712   0.731   0.714   0.701   0.698   0.698   0.664   0.690   0.650   0.706   0.697   0.767   0.761   0.815   0.806   0.825   0.837   0.826   0.752   0.729   0.720   0.682   0.676   0.648   0.684   0.664   0.646   0.603   0.612   0.649   0.625   0.648   0.668   0.690   0.722   0.665   0.673   0.648   0.665   0.645   0.641   0.634   0.632   0.595   0.575   0.569   0.538   0.521   0.504   0.476   0.525   0.552   0.552   0.562   0.572   0.550   0.603   0.589   0.620   0.670   0.655   0.637   0.639   0.641   0.641   0.690   0.648   0.693   0.687   0.641   0.625   0.593   0.604   0.562   0.555   0.560   0.577   0.559   0.628   0.644   0.631   0.688   0.659   0.669   0.665   0.616   0.618   0.619   0.672   0.708   0.724   0.712   0.734   0.731   0.743   0.799   0.761   0.810   0.758   0.726   0.714   0.720   0.725   0.748   0.721   0.764   0.732   0.778   0.745   0.791   0.797   0.789   0.854   0.863   0.868   0.848   0.848   0.885   0.840   0.850   0.859   0.799   0.814   0.836   0.879   0.827   0.815   0.773   0.765   0.754   0.779   0.710   0.675   0.666   0.700   0.720   0.740   0.719   0.717   0.730   0.715   0.746   0.779   0.815   0.741   0.704   0.707   0.743   0.784   0.785   0.784   0.800   0.774   0.753   0.730   0.695   0.735   0.747   0.707   0.677   0.674   0.682   0.680   0.720   0.726   0.724   0.726   0.683   0.726   0.738   0.675   0.649   0.653   0.626   0.597   0.639   0.652   0.641   0.652   0.637   0.635   0.623   0.625   0.604   0.621   0.678
    66.10    0.647   0.655   0.611   0.620   0.696   0.721   0.687   0.741   0.733   0.766   0.714   0.688   0.719   0.706   0.681   0.681   0.678   0.710   0.707   0.800   0.772   0.809   0.857   0.861   0.810   0.745   0.816   0.739   0.739   0.732   0.715   0.727   0.699   0.618   0.660   0.636   0.642   0.665   0.625   0.664   0.649   0.670   0.682   0.615   0.650   0.667   0.679   0.638   0.581   0.664   0.653   0.569   0.571   0.556   0.510   0.532   0.517   0.492   0.510   0.567   0.531   0.536   0.531   0.557   0.583   0.561   0.610   0.591   0.618   0.609   0.602   0.622   0.650   0.708   0.688   0.685   0.679   0.644   0.579   0.587   0.596   0.582   0.598   0.583   0.619   0.629   0.659   0.671   0.665   0.651   0.620   0.583   0.622   0.663   0.676   0.692   0.708   0.692   0.730   0.754   0.752   0.733   0.751   0.758   0.762   0.758   0.754   0.692   0.679   0.714   0.717   0.747   0.791   0.754   0.764   0.763   0.773   0.801   0.876   0.888   0.894   0.898   0.900   0.925   0.948   0.906   0.873   0.855   0.837   0.855   0.879   0.873   0.840   0.797   0.785   0.732   0.801   0.810   0.768   0.743   0.710   0.662   0.699   0.715   0.702   0.747   0.747   0.747   0.821   0.807   0.833   0.795   0.744   0.762   0.803   0.862   0.887   0.858   0.849   0.769   0.752   0.812   0.756   0.794   0.729   0.705   0.676   0.662   0.715   0.697   0.708   0.725   0.699   0.713   0.722   0.780   0.733   0.681   0.654   0.711   0.731   0.668   0.670   0.646   0.644   0.598   0.587   0.585   0.586   0.589   0.584   0.624   0.675
    56.80    0.621   0.627   0.613   0.606   0.609   0.665   0.664   0.688   0.728   0.753   0.712   0.704   0.712   0.711   0.672   0.664   0.650   0.709   0.760   0.724   0.805   0.802   0.824   0.795   0.805   0.805   0.809   0.793   0.757   0.730   0.728   0.702   0.693   0.668   0.660   0.655   0.639   0.676   0.705   0.650   0.657   0.680   0.657   0.648   0.632   0.671   0.633   0.589   0.614   0.622   0.632   0.596   0.599   0.583   0.560   0.520   0.533   0.565   0.597   0.546   0.565   0.568   0.605   0.584   0.615   0.608   0.613   0.615   0.632   0.596   0.577   0.642   0.690   0.710   0.708   0.661   0.673   0.678   0.581   0.587   0.588   0.629   0.602   0.626   0.586   0.591   0.618   0.622   0.609   0.606   0.601   0.637   0.664   0.618   0.688   0.692   0.735   0.731   0.667   0.713   0.714   0.688   0.703   0.776   0.778   0.761   0.708   0.723   0.715   0.723   0.718   0.779   0.740   0.764   0.792   0.804   0.764   0.817   0.855   0.856   0.846   0.856   0.911   0.878   0.892   0.906   0.895   0.823   0.848   0.825   0.903   0.925   0.842   0.871   0.787   0.811   0.735   0.723   0.753   0.687   0.729   0.704   0.710   0.723   0.734   0.738   0.753   0.784   0.830   0.804   0.743   0.776   0.811   0.805   0.837   0.853   0.853   0.816   0.793   0.773   0.820   0.813   0.785   0.762   0.757   0.756   0.746   0.681   0.672   0.713   0.717   0.695   0.697   0.695   0.699   0.731   0.734   0.684   0.669   0.710   0.756   0.711   0.688   0.619   0.627   0.587   0.595   0.628   0.581   0.577   0.570   0.647   0.641
    47.50    0.625   0.594   0.602   0.624   0.584   0.638   0.679   0.717   0.727   0.765   0.747   0.763   0.776   0.711   0.690   0.684   0.675   0.715   0.724   0.720   0.776   0.788   0.799   0.787   0.789   0.789   0.850   0.802   0.752   0.782   0.810   0.755   0.724   0.705   0.660   0.695   0.647   0.706   0.683   0.709   0.673   0.673   0.672   0.693   0.664   0.666   0.603   0.565   0.614   0.633   0.646   0.632   0.550   0.553   0.555   0.562   0.555   0.580   0.620   0.607   0.562   0.569   0.590   0.612   0.591   0.629   0.591   0.601   0.565   0.587   0.600   0.667   0.703   0.724   0.694   0.704   0.631   0.602   0.571   0.581   0.562   0.642   0.602   0.607   0.611   0.583   0.602   0.596   0.625   0.601   0.597   0.625   0.639   0.625   0.635   0.669   0.659   0.729   0.630   0.674   0.679   0.688   0.698   0.747   0.770   0.749   0.745   0.736   0.782   0.803   0.778   0.749   0.770   0.755   0.758   0.767   0.732   0.774   0.821   0.788   0.873   0.900   0.862   0.842   0.905   0.882   0.886   0.859   0.853   0.808   0.838   0.877   0.873   0.809   0.791   0.786   0.744   0.742   0.750   0.740   0.689   0.682   0.746   0.751   0.755   0.774   0.776   0.821   0.796   0.776   0.764   0.792   0.852   0.836   0.850   0.867   0.854   0.851   0.891   0.846   0.813   0.833   0.845   0.780   0.792   0.785   0.742   0.689   0.701   0.711   0.701   0.673   0.672   0.688   0.705   0.719   0.732   0.676   0.706   0.737   0.715   0.719   0.694   0.665   0.631   0.621   0.675   0.632   0.593   0.605   0.621   0.683   0.652
    38.20    0.647   0.629   0.592   0.623   0.606   0.667   0.673   0.668   0.723   0.714   0.699   0.735   0.744   0.768   0.713   0.663   0.665   0.677   0.680   0.765   0.735   0.796   0.774   0.792   0.766   0.809   0.785   0.786   0.752   0.764   0.759   0.766   0.752   0.706   0.619   0.675   0.664   0.681   0.713   0.712   0.750   0.715   0.707   0.743   0.688   0.643   0.612   0.593   0.604   0.622   0.632   0.633   0.631   0.582   0.562   0.616   0.616   0.606   0.653   0.642   0.582   0.603   0.639   0.628   0.652   0.620   0.617   0.615   0.581   0.578   0.585   0.592   0.689   0.685   0.683   0.673   0.613   0.589   0.586   0.571   0.623   0.635   0.658   0.591   0.539   0.610   0.613   0.620   0.627   0.626   0.607   0.675   0.649   0.660   0.672   0.630   0.654   0.651   0.639   0.656   0.647   0.670   0.690   0.699   0.725   0.715   0.731   0.750   0.765   0.797   0.793   0.771   0.748   0.704   0.720   0.764   0.740   0.750   0.762   0.769   0.846   0.855   0.918   0.886   0.964   0.944   0.826   0.778   0.815   0.815   0.791   0.844   0.872   0.781   0.758   0.731   0.738   0.799   0.776   0.693   0.698   0.618   0.720   0.785   0.813   0.750   0.759   0.750   0.788   0.801   0.817   0.813   0.843   0.859   0.833   0.887   0.939   0.949   0.945   0.870   0.856   0.825   0.839   0.812   0.831   0.789   0.776   0.732   0.689   0.720   0.691   0.704   0.702   0.676   0.678   0.698   0.734   0.720   0.752   0.740   0.735   0.674   0.661   0.678   0.634   0.669   0.688   0.684   0.630   0.593   0.651   0.714   0.715
    28.90    0.656   0.628   0.644   0.634   0.660   0.668   0.621   0.666   0.700   0.673   0.674   0.705   0.687   0.735   0.702   0.688   0.627   0.638   0.703   0.723   0.740   0.771   0.808   0.803   0.832   0.804   0.746   0.710   0.729   0.753   0.673   0.709   0.744   0.681   0.676   0.651   0.661   0.681   0.737   0.685   0.694   0.719   0.750   0.720   0.719   0.681   0.654   0.645   0.626   0.607   0.651   0.641   0.609   0.627   0.538   0.594   0.613   0.628   0.659   0.687   0.629   0.630   0.657   0.651   0.643   0.637   0.630   0.592   0.638   0.578   0.542   0.590   0.607   0.685   0.667   0.684   0.685   0.630   0.640   0.602   0.638   0.631   0.624   0.629   0.576   0.579   0.562   0.574   0.582   0.643   0.686   0.723   0.659   0.617   0.676   0.674   0.617   0.640   0.668   0.655   0.673   0.705   0.718   0.734   0.682   0.689   0.712   0.741   0.725   0.775   0.717   0.759   0.726   0.710   0.662   0.712   0.757   0.792   0.795   0.804   0.795   0.805   0.866   0.917   0.938   0.881   0.793   0.747   0.802   0.799   0.801   0.853   0.850   0.775   0.740   0.712   0.769   0.768   0.785   0.734   0.676   0.668   0.673   0.771   0.780   0.732   0.713   0.761   0.782   0.765   0.772   0.819   0.777   0.777   0.861   0.924   0.957   0.951   0.953   0.936   0.887   0.859   0.829   0.822   0.830   0.812   0.774   0.743   0.727   0.746   0.734   0.722   0.669   0.685   0.712   0.713   0.714   0.712   0.725   0.738   0.707   0.605   0.641   0.667   0.647   0.642   0.681   0.682   0.624   0.648   0.695   0.664   0.656
    19.60    0.666   0.679   0.671   0.640   0.649   0.656   0.664   0.696   0.677   0.609   0.679   0.695   0.690   0.737   0.696   0.676   0.666   0.615   0.669   0.721   0.671   0.783   0.799   0.821   0.788   0.751   0.719   0.728   0.730   0.728   0.669   0.682   0.688   0.690   0.681   0.668   0.676   0.774   0.758   0.736   0.732   0.709   0.700   0.703   0.720   0.690   0.653   0.672   0.619   0.627   0.673   0.675   0.600   0.613   0.564   0.588   0.613   0.632   0.688   0.641   0.627   0.651   0.674   0.644   0.641   0.637   0.673   0.651   0.621   0.580   0.595   0.579   0.571   0.654   0.674   0.661   0.730   0.621   0.661   0.636   0.610   0.623   0.628   0.601   0.643   0.614   0.582   0.553   0.587   0.654   0.723   0.770   0.706   0.668   0.676   0.667   0.612   0.622   0.662   0.671   0.704   0.721   0.747   0.725   0.700   0.712   0.705   0.754   0.745   0.713   0.737   0.725   0.735   0.720   0.703   0.698   0.694   0.756   0.778   0.757   0.776   0.786   0.881   0.887   0.842   0.783   0.765   0.808   0.816   0.836   0.805   0.861   0.801   0.775   0.723   0.736   0.762   0.739   0.770   0.727   0.676   0.678   0.713   0.773   0.793   0.775   0.765   0.794   0.788   0.773   0.762   0.785   0.778   0.777   0.822   0.846   0.903   0.945   0.889   0.912   0.939   0.914   0.833   0.816   0.816   0.789   0.779   0.763   0.755   0.714   0.727   0.654   0.631   0.673   0.725   0.732   0.737   0.728   0.739   0.758   0.716   0.620   0.608   0.679   0.649   0.642   0.627   0.615   0.641   0.652   0.658   0.694   0.701
    10.30    0.687   0.653   0.682   0.642   0.639   0.648   0.673   0.652   0.613   0.615   0.606   0.668   0.684   0.739   0.751   0.730   0.694   0.669   0.673   0.696   0.708   0.782   0.799   0.784   0.792   0.813   0.729   0.724   0.768   0.692   0.675   0.677   0.671   0.630   0.649   0.668   0.647   0.752   0.785   0.733   0.743   0.797   0.770   0.806   0.769   0.777   0.741   0.710   0.641   0.683   0.680   0.640   0.656   0.642   0.626   0.616   0.625   0.650   0.654   0.648   0.635   0.605   0.658   0.636   0.658   0.682   0.677   0.646   0.629   0.622   0.575   0.589   0.657   0.619   0.641   0.679   0.662   0.652   0.674   0.619   0.616   0.593   0.607   0.608   0.621   0.583   0.613   0.590   0.636   0.695   0.705   0.746   0.764   0.716   0.674   0.672   0.564   0.628   0.659   0.655   0.712   0.731   0.724   0.727   0.723   0.701   0.666   0.675   0.693   0.725   0.755   0.750   0.776   0.762   0.722   0.683   0.717   0.719   0.690   0.765   0.767   0.753   0.826   0.884   0.859   0.836   0.780   0.809   0.803   0.777   0.723   0.770   0.795   0.727   0.749   0.732   0.763   0.734   0.713   0.669   0.659   0.653   0.640   0.744   0.819   0.720   0.726   0.762   0.764   0.747   0.757   0.773   0.694   0.732   0.768   0.774   0.801   0.825   0.876   0.888   0.925   0.930   0.879   0.838   0.837   0.735   0.713   0.728   0.707   0.709   0.674   0.636   0.656   0.702   0.695   0.752   0.746   0.760   0.808   0.756   0.747   0.717   0.683   0.674   0.654   0.653   0.621   0.674   0.650   0.680   0.694   0.713   0.693
     1.00    0.716   0.658   0.681   0.717   0.632   0.652   0.631   0.582   0.583   0.595   0.644   0.672   0.736   0.738   0.739   0.711   0.769   0.694   0.743   0.698   0.764   0.735   0.791   0.744   0.742   0.719   0.721   0.722   0.776   0.770   0.751   0.680   0.680   0.687   0.678   0.659   0.695   0.747   0.744   0.761   0.778   0.743   0.770   0.786   0.808   0.787   0.799   0.740   0.686   0.676   0.694   0.679   0.635   0.629   0.615   0.630   0.669   0.642   0.671   0.673   0.658   0.649   0.658   0.672   0.685   0.716   0.691   0.651   0.631   0.620   0.601   0.633   0.612   0.633   0.627   0.671   0.642   0.667   0.627   0.613   0.630   0.637   0.603   0.591   0.583   0.559   0.591   0.637   0.660   0.698   0.705   0.724   0.740   0.712   0.673   0.648   0.609   0.637   0.598   0.683   0.696   0.711   0.706   0.697   0.683   0.695   0.658   0.702   0.680   0.701   0.725   0.751   0.773   0.756   0.744   0.723   0.702   0.720   0.729   0.751   0.744   0.791   0.820   0.840   0.848   0.815   0.796   0.765   0.809   0.753   0.735   0.701   0.712   0.735   0.733   0.706   0.772   0.702   0.729   0.765   0.667   0.675   0.682   0.725   0.766   0.737   0.703   0.776   0.752   0.779   0.781   0.794   0.738   0.725   0.734   0.758   0.786   0.790   0.821   0.853   0.889   0.914   0.853   0.787   0.804   0.767   0.738   0.719   0.724   0.711   0.673   0.621   0.673   0.714   0.696   0.728   0.785   0.790   0.780   0.807   0.799   0.759   0.739   0.668   0.633   0.644   0.600   0.639   0.626   0.679   0.655   0.715   0.711

   Height   Standard deviation at grid points for the v component:
   354.40    0.581   0.597   0.606   0.624   0.612   0.600   0.608   0.628   0.624   0.589   0.581   0.581   0.591   0.579   0.558   0.582   0.548   0.545   0.539   0.571   0.595   0.577   0.570   0.536   0.546   0.566   0.533   0.544   0.549   0.598   0.568   0.567   0.517   0.546   0.529   0.561   0.567   0.562   0.574   0.584   0.542   0.576   0.555   0.588   0.593   0.584   0.576   0.570   0.588   0.568   0.574   0.554   0.549   0.557   0.531   0.554   0.539   0.536   0.548   0.575   0.547   0.571   0.558   0.543   0.554   0.531   0.567   0.560   0.563   0.589   0.595   0.632   0.653   0.647   0.638   0.608   0.642   0.638   0.634   0.601   0.576   0.563   0.548   0.572   0.540   0.557   0.555   0.603   0.602   0.603   0.604   0.594   0.591   0.588   0.590   0.592   0.629   0.640   0.652   0.684   0.678   0.690   0.682   0.670   0.641   0.614   0.610   0.604   0.558   0.564   0.555   0.576   0.571   0.571   0.587   0.567   0.588   0.597   0.609   0.626   0.611   0.606   0.603   0.602   0.592   0.566   0.586   0.610   0.635   0.629   0.607   0.608   0.578   0.558   0.543   0.557   0.550   0.551   0.553   0.550   0.541   0.517   0.519   0.518   0.515   0.538   0.539   0.569   0.570   0.545   0.527   0.542   0.557   0.569   0.571   0.573   0.595   0.596   0.608   0.613   0.594   0.601   0.574   0.553   0.548   0.569   0.576   0.574   0.586   0.598   0.588   0.563   0.549   0.515   0.529   0.523   0.576   0.560   0.563   0.542   0.542   0.572   0.525   0.527   0.492   0.537   0.541   0.538   0.528   0.546   0.525   0.563   0.565
   345.10    0.593   0.602   0.627   0.636   0.620   0.640   0.601   0.593   0.603   0.609   0.614   0.615   0.606   0.579   0.589   0.584   0.589   0.575   0.562   0.586   0.570   0.579   0.562   0.588   0.565   0.553   0.547   0.536   0.543   0.563   0.587   0.543   0.535   0.540   0.581   0.553   0.560   0.577   0.584   0.571   0.573   0.602   0.604   0.612   0.578   0.565   0.556   0.567   0.580   0.548   0.550   0.570   0.559   0.564   0.550   0.575   0.573   0.558   0.551   0.565   0.569   0.555   0.554   0.556   0.551   0.523   0.542   0.587   0.594   0.605   0.608   0.629   0.628   0.661   0.663   0.638   0.644   0.643   0.618   0.598   0.582   0.572   0.559   0.539   0.538   0.543   0.536   0.584   0.618   0.616   0.569   0.575   0.582   0.587   0.588   0.592   0.645   0.648   0.673   0.693   0.679   0.663   0.680   0.639   0.623   0.630   0.611   0.596   0.553   0.527   0.555   0.553   0.559   0.549   0.573   0.577   0.604   0.585   0.631   0.614   0.629   0.616   0.585   0.582   0.595   0.572   0.604   0.627   0.612   0.606   0.597   0.562   0.543   0.555   0.531   0.542   0.534   0.553   0.530   0.550   0.546   0.549   0.563   0.519   0.531   0.491   0.524   0.547   0.577   0.560   0.555   0.562   0.571   0.570   0.600   0.588   0.541   0.577   0.595   0.592   0.598   0.571   0.566   0.573   0.560   0.554   0.565   0.596   0.582   0.625   0.599   0.581   0.597   0.590   0.582   0.570   0.570   0.575   0.561   0.540   0.511   0.536   0.530   0.510   0.505   0.496   0.540   0.508   0.553   0.568   0.560   0.578   0.559
   335.80    0.602   0.592   0.628   0.626   0.632   0.592   0.600   0.584   0.610   0.586   0.621   0.598   0.590   0.580   0.567   0.572   0.575   0.596   0.588   0.559   0.552   0.571   0.589   0.572   0.569   0.571   0.525   0.555   0.567   0.590   0.590   0.554   0.554   0.543   0.562   0.554   0.577   0.591   0.593   0.600   0.617   0.575   0.572   0.591   0.577   0.564   0.579   0.595   0.588   0.572   0.574   0.581   0.569   0.576   0.576   0.594   0.581   0.554   0.549   0.540   0.566   0.546   0.564   0.543   0.573   0.547   0.551   0.550   0.602   0.575   0.576   0.595   0.603   0.645   0.629   0.616   0.618   0.599   0.582   0.603   0.595   0.563   0.541   0.548   0.536   0.519   0.550   0.570   0.598   0.588   0.602   0.604   0.595   0.567   0.590   0.596   0.664   0.669   0.662   0.649   0.683   0.671   0.668   0.626   0.621   0.603   0.582   0.570   0.566   0.527   0.542   0.533   0.560   0.554   0.545   0.574   0.580   0.596   0.610   0.607   0.618   0.569   0.555   0.573   0.596   0.569   0.595   0.614   0.616   0.569   0.567   0.549   0.544   0.544   0.554   0.561   0.563   0.556   0.551   0.554   0.549   0.526   0.553   0.525   0.539   0.543   0.543   0.532   0.538   0.569   0.565   0.553   0.562   0.553   0.572   0.580   0.573   0.564   0.606   0.598   0.575   0.629   0.562   0.566   0.537   0.562   0.581   0.580   0.603   0.576   0.603   0.614   0.585   0.556   0.609   0.586   0.587   0.557   0.533   0.517   0.530   0.522   0.521   0.517   0.513   0.524   0.528   0.528   0.561   0.548   0.535   0.560   0.538
   326.50    0.617   0.603   0.620   0.601   0.592   0.595   0.608   0.600   0.590   0.590   0.622   0.614   0.618   0.591   0.596   0.570   0.588   0.592   0.600   0.549   0.529   0.582   0.613   0.586   0.597   0.576   0.550   0.582   0.575   0.578   0.554   0.585   0.583   0.580   0.549   0.591   0.561   0.591   0.604   0.603   0.596   0.589   0.560   0.546   0.560   0.530   0.573   0.591   0.558   0.563   0.543   0.561   0.608   0.598   0.605   0.593   0.591   0.550   0.561   0.577   0.552   0.564   0.555   0.574   0.593   0.552   0.549   0.565   0.596   0.610   0.594   0.609   0.627   0.620   0.627   0.608   0.617   0.589   0.606   0.597   0.591   0.550   0.540   0.545   0.552   0.542   0.557   0.546   0.577   0.565   0.578   0.593   0.570   0.594   0.582   0.627   0.662   0.695   0.682   0.657   0.688   0.647   0.665   0.644   0.607   0.601   0.565   0.564   0.529   0.551   0.516   0.524   0.572   0.567   0.575   0.573   0.583   0.609   0.630   0.630   0.587   0.565   0.539   0.561   0.553   0.599   0.592   0.639   0.595   0.590   0.578   0.568   0.547   0.535   0.578   0.563   0.561   0.567   0.558   0.562   0.538   0.521   0.502   0.518   0.530   0.567   0.540   0.546   0.558   0.559   0.620   0.569   0.579   0.549   0.543   0.557   0.550   0.572   0.599   0.608   0.612   0.618   0.591   0.606   0.567   0.555   0.572   0.557   0.590   0.559   0.583   0.595   0.578   0.601   0.598   0.573   0.571   0.547   0.553   0.507   0.500   0.504   0.510   0.526   0.536   0.547   0.535   0.556   0.566   0.514   0.541   0.562   0.544
[...]
   103.30    0.348   0.351   0.365   0.362   0.358   0.356   0.367   0.365   0.366   0.347   0.353   0.367   0.361   0.354   0.346   0.350   0.366   0.361   0.347   0.340   0.344   0.353   0.348   0.349   0.343   0.344   0.330   0.353   0.352   0.340   0.344   0.349   0.340   0.344   0.351   0.347   0.348   0.357   0.365   0.374   0.367   0.362   0.352   0.361   0.363   0.360   0.367   0.361   0.362   0.358   0.345   0.339   0.350   0.339   0.337   0.350   0.341   0.348   0.344   0.339   0.342   0.352   0.347   0.350   0.351   0.357   0.369   0.361   0.351   0.358   0.344   0.349   0.355   0.368   0.349   0.360   0.338   0.347   0.350   0.352   0.362   0.355   0.357   0.346   0.337   0.341   0.337   0.345   0.349   0.347   0.356   0.359   0.354   0.361   0.356   0.363   0.360   0.362   0.355   0.349   0.349   0.341   0.350   0.344   0.338   0.350   0.363   0.350   0.357   0.348   0.344   0.342   0.340   0.344   0.361   0.362   0.345   0.343   0.352   0.341   0.342   0.340   0.348   0.333   0.339   0.350   0.346   0.337   0.344   0.345   0.349   0.347   0.342   0.358   0.366   0.355   0.345   0.343   0.347   0.352   0.353   0.361   0.366   0.349   0.344   0.360   0.374   0.363   0.356   0.358   0.364   0.365   0.370   0.353   0.356   0.354   0.349   0.334   0.343   0.342   0.350   0.355   0.365   0.375   0.369   0.365   0.363   0.361   0.352   0.358   0.363   0.352   0.357   0.361   0.351   0.354   0.357   0.365   0.361   0.365   0.354   0.354   0.359   0.349   0.331   0.333   0.332   0.340   0.332   0.347   0.350   0.348   0.344
    94.00    0.364   0.367   0.356   0.349   0.353   0.349   0.355   0.358   0.354   0.353   0.349   0.359   0.361   0.358   0.354   0.366   0.376   0.355   0.347   0.347   0.354   0.351   0.353   0.358   0.359   0.341   0.332   0.352   0.357   0.344   0.353   0.350   0.341   0.347   0.334   0.342   0.347   0.360   0.370   0.362   0.365   0.369   0.364   0.357   0.369   0.378   0.367   0.360   0.361   0.366   0.346   0.351   0.337   0.336   0.353   0.365   0.347   0.348   0.354   0.353   0.342   0.339   0.347   0.344   0.350   0.371   0.375   0.371   0.360   0.351   0.349   0.357   0.356   0.356   0.345   0.344   0.347   0.342   0.345   0.355   0.348   0.356   0.350   0.349   0.345   0.340   0.345   0.347   0.353   0.346   0.335   0.345   0.352   0.361   0.367   0.370   0.359   0.362   0.356   0.359   0.353   0.348   0.353   0.357   0.349   0.349   0.351   0.349   0.356   0.357   0.339   0.347   0.352   0.346   0.353   0.359   0.351   0.346   0.350   0.339   0.361   0.349   0.335   0.337   0.346   0.350   0.349   0.350   0.345   0.339   0.358   0.360   0.350   0.357   0.365   0.348   0.351   0.352   0.356   0.359   0.369   0.353   0.360   0.362   0.368   0.365   0.369   0.360   0.352   0.353   0.360   0.371   0.367   0.370   0.364   0.357   0.351   0.337   0.340   0.348   0.360   0.364   0.358   0.369   0.369   0.377   0.368   0.370   0.358   0.356   0.368   0.369   0.364   0.361   0.366   0.360   0.347   0.351   0.351   0.355   0.354   0.360   0.348   0.340   0.340   0.329   0.335   0.330   0.333   0.326   0.344   0.335   0.350
    84.70    0.358   0.359   0.357   0.364   0.358   0.353   0.346   0.351   0.345   0.353   0.360   0.366   0.375   0.363   0.359   0.357   0.356   0.347   0.348   0.342   0.352   0.340   0.346   0.351   0.353   0.363   0.341   0.346   0.357   0.347   0.345   0.353   0.342   0.341   0.343   0.343   0.348   0.349   0.358   0.365   0.365   0.355   0.366   0.352   0.357   0.370   0.374   0.367   0.370   0.356   0.361   0.338   0.332   0.335   0.351   0.356   0.363   0.365   0.360   0.345   0.357   0.354   0.338   0.349   0.354   0.360   0.375   0.371   0.368   0.372   0.357   0.351   0.352   0.355   0.345   0.342   0.337   0.334   0.329   0.340   0.350   0.347   0.349   0.343   0.352   0.342   0.352   0.347   0.353   0.350   0.352   0.354   0.355   0.358   0.357   0.370   0.358   0.365   0.368   0.372   0.368   0.362   0.358   0.348   0.348   0.357   0.353   0.356   0.355   0.352   0.332   0.343   0.344   0.358   0.375   0.359   0.346   0.342   0.344   0.338   0.351   0.355   0.346   0.342   0.341   0.347   0.343   0.346   0.333   0.337   0.343   0.345   0.346   0.359   0.359   0.351   0.344   0.355   0.353   0.369   0.374   0.368   0.361   0.368   0.377   0.370   0.350   0.354   0.359   0.358   0.363   0.367   0.362   0.357   0.359   0.352   0.356   0.350   0.359   0.366   0.368   0.358   0.360   0.375   0.370   0.372   0.369   0.362   0.346   0.366   0.354   0.351   0.360   0.357   0.360   0.362   0.349   0.341   0.336   0.354   0.361   0.353   0.344   0.356   0.348   0.339   0.341   0.329   0.337   0.337   0.335   0.345   0.340
    75.40    0.358   0.353   0.351   0.358   0.351   0.349   0.337   0.349   0.351   0.348   0.355   0.362   0.360   0.361   0.368   0.365   0.355   0.347   0.355   0.350   0.347   0.350   0.344   0.349   0.369   0.359   0.353   0.353   0.359   0.352   0.350   0.354   0.343   0.337   0.346   0.348   0.350   0.350   0.352   0.359   0.338   0.347   0.359   0.356   0.355   0.371   0.388   0.364   0.365   0.356   0.344   0.339   0.332   0.350   0.353   0.350   0.356   0.356   0.346   0.352   0.361   0.352   0.346   0.355   0.356   0.358   0.366   0.368   0.362   0.363   0.353   0.364   0.355   0.355   0.348   0.352   0.346   0.335   0.326   0.346   0.358   0.347   0.345   0.355   0.352   0.348   0.355   0.355   0.367   0.356   0.353   0.350   0.351   0.357   0.374   0.374   0.368   0.372   0.358   0.368   0.371   0.362   0.367   0.359   0.347   0.356   0.368   0.364   0.356   0.349   0.339   0.344   0.344   0.357   0.368   0.347   0.352   0.336   0.356   0.349   0.344   0.346   0.352   0.349   0.350   0.353   0.348   0.348   0.346   0.347   0.342   0.348   0.342   0.342   0.352   0.356   0.368   0.356   0.355   0.367   0.359   0.361   0.358   0.361   0.367   0.361   0.349   0.360   0.358   0.363   0.358   0.354   0.361   0.359   0.364   0.357   0.364   0.358   0.359   0.355   0.356   0.357   0.368   0.368   0.367   0.359   0.365   0.358   0.366   0.364   0.364   0.359   0.353   0.359   0.358   0.363   0.365   0.356   0.346   0.353   0.360   0.334   0.345   0.342   0.339   0.341   0.345   0.337   0.337   0.338   0.349   0.343   0.349
    66.10    0.345   0.357   0.361   0.360   0.346   0.352   0.342   0.349   0.352   0.352   0.344   0.351   0.355   0.353   0.358   0.371   0.360   0.355   0.357   0.344   0.354   0.356   0.338   0.343   0.346   0.346   0.355   0.356   0.360   0.354   0.354   0.356   0.358   0.333   0.339   0.342   0.344   0.344   0.342   0.344   0.344   0.343   0.368   0.373   0.367   0.371   0.369   0.362   0.356   0.356   0.359   0.353   0.355   0.344   0.351   0.363   0.359   0.363   0.356   0.355   0.356   0.361   0.358   0.352   0.356   0.356   0.357   0.355   0.367   0.375   0.360   0.370   0.364   0.353   0.349   0.351   0.349   0.342   0.347   0.349   0.361   0.345   0.347   0.352   0.346   0.361   0.362   0.358   0.363   0.366   0.357   0.349   0.354   0.357   0.362   0.375   0.363   0.376   0.367   0.365   0.374   0.369   0.364   0.344   0.348   0.346   0.351   0.364   0.352   0.343   0.342   0.342   0.351   0.345   0.356   0.361   0.353   0.346   0.353   0.359   0.356   0.347   0.363   0.356   0.339   0.342   0.349   0.345   0.348   0.349   0.343   0.353   0.357   0.361   0.353   0.359   0.366   0.358   0.351   0.362   0.355   0.356   0.349   0.351   0.362   0.361   0.349   0.357   0.350   0.348   0.348   0.348   0.368   0.355   0.358   0.354   0.365   0.370   0.356   0.349   0.356   0.359   0.359   0.353   0.358   0.347   0.353   0.356   0.351   0.347   0.367   0.360   0.361   0.355   0.344   0.358   0.366   0.349   0.357   0.358   0.360   0.341   0.345   0.336   0.337   0.346   0.338   0.342   0.337   0.332   0.353   0.347   0.339
    56.80    0.352   0.359   0.348   0.346   0.353   0.339   0.341   0.333   0.340   0.352   0.345   0.335   0.349   0.355   0.348   0.349   0.348   0.346   0.358   0.341   0.349   0.355   0.343   0.349   0.357   0.357   0.352   0.356   0.359   0.353   0.350   0.354   0.353   0.353   0.353   0.348   0.345   0.349   0.348   0.348   0.337   0.349   0.359   0.364   0.363   0.360   0.360   0.361   0.358   0.352   0.358   0.354   0.359   0.357   0.343   0.357   0.367   0.361   0.362   0.351   0.347   0.358   0.368   0.361   0.363   0.355   0.354   0.344   0.359   0.353   0.361   0.365   0.364   0.350   0.357   0.348   0.357   0.348   0.355   0.361   0.346   0.351   0.367   0.356   0.351   0.350   0.359   0.350   0.351   0.368   0.362   0.371   0.362   0.357   0.362   0.363   0.370   0.366   0.375   0.360   0.352   0.368   0.375   0.362   0.358   0.365   0.360   0.353   0.349   0.347   0.349   0.361   0.355   0.353   0.364   0.368   0.360   0.360   0.365   0.350   0.349   0.349   0.355   0.365   0.346   0.340   0.350   0.346   0.341   0.349   0.350   0.358   0.364   0.354   0.357   0.349   0.360   0.356   0.356   0.356   0.339   0.340   0.351   0.358   0.359   0.350   0.348   0.348   0.350   0.355   0.347   0.358   0.361   0.349   0.362   0.362   0.357   0.362   0.365   0.346   0.355   0.360   0.362   0.348   0.348   0.345   0.347   0.339   0.353   0.361   0.363   0.361   0.353   0.366   0.356   0.358   0.352   0.339   0.352   0.358   0.356   0.349   0.346   0.337   0.347   0.342   0.355   0.351   0.340   0.345   0.347   0.343   0.345
    47.50    0.356   0.350   0.345   0.344   0.335   0.343   0.341   0.345   0.341   0.348   0.352   0.352   0.355   0.354   0.357   0.349   0.349   0.349   0.358   0.348   0.342   0.340   0.346   0.340   0.355   0.353   0.350   0.352   0.354   0.347   0.347   0.347   0.359   0.346   0.349   0.349   0.344   0.344   0.345   0.350   0.360   0.362   0.345   0.366   0.361   0.364   0.358   0.369   0.347   0.352   0.355   0.373   0.375   0.361   0.348   0.355   0.362   0.361   0.359   0.343   0.345   0.358   0.374   0.370   0.365   0.352   0.353   0.343   0.369   0.369   0.362   0.360   0.360   0.353   0.355   0.345   0.360   0.360   0.352   0.355   0.356   0.356   0.360   0.365   0.350   0.347   0.354   0.349   0.345   0.360   0.363   0.364   0.370   0.362   0.362   0.370   0.376   0.381   0.376   0.362   0.363   0.363   0.363   0.367   0.363   0.348   0.354   0.357   0.346   0.346   0.345   0.345   0.359   0.352   0.359   0.355   0.359   0.357   0.363   0.361   0.363   0.349   0.361   0.361   0.361   0.342   0.341   0.349   0.354   0.345   0.358   0.347   0.345   0.357   0.355   0.354   0.354   0.359   0.365   0.354   0.341   0.356   0.357   0.357   0.353   0.350   0.345   0.340   0.343   0.354   0.345   0.366   0.356   0.350   0.352   0.353   0.352   0.356   0.351   0.367   0.353   0.365   0.366   0.356   0.348   0.344   0.333   0.340   0.336   0.351   0.352   0.353   0.369   0.363   0.360   0.373   0.363   0.343   0.348   0.363   0.349   0.353   0.336   0.343   0.340   0.349   0.342   0.360   0.356   0.340   0.348   0.361   0.353
    38.20    0.360   0.361   0.357   0.364   0.349   0.343   0.348   0.345   0.349   0.340   0.348   0.357   0.343   0.355   0.351   0.350   0.342   0.339   0.347   0.345   0.341   0.341   0.339   0.346   0.356   0.346   0.354   0.349   0.349   0.361   0.358   0.358   0.355   0.347   0.347   0.361   0.349   0.359   0.353   0.349   0.353   0.358   0.355   0.358   0.362   0.367   0.355   0.361   0.347   0.356   0.368   0.376   0.381   0.374   0.372   0.368   0.352   0.350   0.349   0.349   0.346   0.359   0.368   0.358   0.359   0.353   0.365   0.349   0.357   0.361   0.353   0.367   0.347   0.353   0.351   0.359   0.343   0.352   0.346   0.358   0.353   0.349   0.351   0.361   0.362   0.354   0.353   0.361   0.356   0.358   0.361   0.361   0.360   0.353   0.355   0.357   0.361   0.377   0.374   0.367   0.356   0.361   0.365   0.368   0.368   0.363   0.347   0.352   0.356   0.351   0.359   0.347   0.355   0.359   0.373   0.368   0.365   0.371   0.364   0.356   0.362   0.352   0.346   0.360   0.355   0.347   0.346   0.358   0.351   0.340   0.349   0.356   0.354   0.357   0.371   0.362   0.358   0.358   0.359   0.365   0.358   0.355   0.358   0.347   0.348   0.352   0.360   0.344   0.347   0.348   0.359   0.359   0.356   0.357   0.359   0.363   0.360   0.352   0.342   0.343   0.362   0.357   0.362   0.365   0.347   0.345   0.344   0.348   0.330   0.340   0.345   0.354   0.366   0.362   0.354   0.364   0.351   0.344   0.362   0.356   0.346   0.357   0.345   0.334   0.338   0.343   0.361   0.354   0.347   0.354   0.340   0.352   0.362
    28.90    0.354   0.373   0.368   0.369   0.360   0.354   0.341   0.349   0.357   0.343   0.354   0.353   0.355   0.355   0.359   0.348   0.334   0.336   0.343   0.357   0.344   0.352   0.343   0.339   0.349   0.350   0.345   0.350   0.353   0.360   0.364   0.360   0.355   0.346   0.355   0.359   0.359   0.366   0.351   0.357   0.347   0.354   0.366   0.362   0.362   0.370   0.373   0.369   0.367   0.348   0.361   0.366   0.377   0.373   0.359   0.370   0.366   0.357   0.343   0.345   0.348   0.361   0.363   0.355   0.357   0.350   0.359   0.348   0.348   0.343   0.342   0.342   0.342   0.346   0.339   0.341   0.355   0.360   0.365   0.367   0.357   0.338   0.345   0.351   0.358   0.357   0.371   0.366   0.354   0.358   0.356   0.361   0.359   0.360   0.364   0.364   0.371   0.374   0.364   0.365   0.372   0.360   0.358   0.354   0.361   0.362   0.352   0.365   0.360   0.351   0.346   0.341   0.340   0.355   0.366   0.362   0.361   0.372   0.364   0.349   0.360   0.365   0.349   0.342   0.343   0.349   0.344   0.332   0.340   0.354   0.354   0.354   0.350   0.370   0.364   0.369   0.360   0.357   0.360   0.358   0.355   0.351   0.357   0.353   0.349   0.348   0.354   0.356   0.348   0.347   0.347   0.352   0.349   0.360   0.365   0.366   0.370   0.354   0.357   0.359   0.359   0.360   0.366   0.363   0.359   0.356   0.347   0.344   0.352   0.357   0.359   0.361   0.369   0.358   0.352   0.359   0.362   0.363   0.352   0.350   0.347   0.345   0.347   0.347   0.353   0.351   0.353   0.350   0.358   0.359   0.345   0.360   0.355
    19.60    0.354   0.368   0.375   0.365   0.350   0.354   0.347   0.358   0.354   0.357   0.358   0.345   0.348   0.354   0.355   0.358   0.354   0.362   0.347   0.350   0.341   0.351   0.350   0.351   0.350   0.344   0.354   0.354   0.357   0.364   0.368   0.362   0.346   0.340   0.343   0.351   0.356   0.362   0.362   0.345   0.344   0.363   0.369   0.366   0.359   0.360   0.364   0.377   0.366   0.371   0.350   0.361   0.372   0.374   0.371   0.365   0.355   0.360   0.355   0.352   0.350   0.357   0.353   0.371   0.373   0.362   0.361   0.364   0.351   0.340   0.343   0.343   0.348   0.352   0.346   0.351   0.348   0.353   0.360   0.357   0.357   0.358   0.347   0.336   0.350   0.351   0.357   0.356   0.360   0.363   0.365   0.355   0.351   0.356   0.368   0.364   0.359   0.369   0.377   0.361   0.372   0.377   0.361   0.346   0.351   0.364   0.368   0.365   0.367   0.359   0.352   0.346   0.348   0.351   0.357   0.350   0.359   0.364   0.360   0.364   0.358   0.352   0.349   0.346   0.346   0.351   0.340   0.341   0.333   0.346   0.353   0.355   0.356   0.361   0.367   0.359   0.357   0.348   0.360   0.357   0.357   0.360   0.360   0.352   0.345   0.338   0.344   0.348   0.352   0.355   0.346   0.331   0.344   0.356   0.348   0.346   0.366   0.356   0.363   0.364   0.362   0.367   0.357   0.360   0.349   0.355   0.356   0.356   0.355   0.358   0.353   0.367   0.355   0.367   0.370   0.355   0.351   0.355   0.355   0.359   0.352   0.354   0.354   0.345   0.356   0.344   0.333   0.341   0.348   0.340   0.346   0.361   0.354
    10.30    0.367   0.362   0.359   0.358   0.362   0.356   0.341   0.352   0.354   0.348   0.349   0.343   0.354   0.362   0.365   0.362   0.359   0.358   0.348   0.343   0.347   0.349   0.341   0.339   0.356   0.342   0.356   0.375   0.360   0.362   0.360   0.360   0.351   0.353   0.361   0.349   0.349   0.353   0.353   0.349   0.340   0.355   0.368   0.367   0.369   0.373   0.367   0.371   0.363   0.376   0.357   0.358   0.365   0.372   0.370   0.364   0.362   0.364   0.346   0.352   0.363   0.347   0.355   0.367   0.374   0.366   0.351   0.349   0.342   0.351   0.350   0.348   0.354   0.349   0.344   0.346   0.359   0.357   0.349   0.361   0.354   0.347   0.345   0.349   0.351   0.352   0.354   0.352   0.357   0.364   0.364   0.349   0.348   0.356   0.361   0.363   0.352   0.367   0.359   0.371   0.377   0.372   0.369   0.360   0.357   0.365   0.353   0.358   0.361   0.365   0.369   0.362   0.350   0.351   0.342   0.357   0.355   0.357   0.357   0.362   0.359   0.367   0.367   0.348   0.338   0.351   0.348   0.348   0.351   0.359   0.359   0.357   0.353   0.342   0.362   0.358   0.354   0.339   0.353   0.360   0.356   0.352   0.359   0.345   0.359   0.344   0.338   0.339   0.355   0.361   0.351   0.343   0.351   0.349   0.349   0.352   0.362   0.375   0.366   0.375   0.368   0.368   0.369   0.369   0.363   0.356   0.362   0.362   0.362   0.364   0.367   0.359   0.382   0.375   0.368   0.358   0.350   0.349   0.357   0.343   0.350   0.353   0.354   0.351   0.354   0.346   0.344   0.345   0.335   0.341   0.359   0.349   0.346
     1.00    0.356   0.350   0.357   0.361   0.350   0.349   0.349   0.359   0.358   0.351   0.351   0.352   0.351   0.357   0.361   0.353   0.357   0.366   0.361   0.352   0.351   0.359   0.364   0.349   0.342   0.343   0.362   0.364   0.366   0.363   0.364   0.358   0.362   0.358   0.351   0.358   0.356   0.366   0.355   0.350   0.349   0.360   0.371   0.369   0.377   0.369   0.368   0.363   0.363   0.358   0.361   0.362   0.362   0.361   0.363   0.368   0.358   0.360   0.371   0.363   0.362   0.364   0.354   0.360   0.361   0.357   0.362   0.359   0.344   0.352   0.347   0.351   0.351   0.355   0.358   0.366   0.365   0.363   0.347   0.348   0.353   0.351   0.344   0.353   0.350   0.353   0.359   0.364   0.348   0.366   0.355   0.341   0.350   0.353   0.349   0.354   0.361   0.371   0.354   0.353   0.367   0.365   0.361   0.375   0.361   0.365   0.357   0.361   0.365   0.363   0.359   0.352   0.340   0.343   0.334   0.338   0.347   0.344   0.354   0.358   0.362   0.362   0.353   0.345   0.344   0.357   0.348   0.353   0.354   0.353   0.351   0.350   0.343   0.346   0.354   0.350   0.352   0.355   0.362   0.360   0.363   0.351   0.364   0.358   0.351   0.353   0.337   0.345   0.347   0.353   0.341   0.344   0.353   0.358   0.345   0.344   0.356   0.366   0.360   0.363   0.363   0.366   0.359   0.366   0.356   0.357   0.362   0.380   0.376   0.373   0.367   0.365   0.366   0.377   0.382   0.366   0.366   0.350   0.356   0.347   0.358   0.356   0.353   0.353   0.349   0.343   0.341   0.348   0.350   0.343   0.348   0.354   0.357

   Mean standard deviation across all grid points:
      u component:    0.692 m/s
      v component:    0.583 m/s
      w component:    0.355 m/s


U-component (X) statistics from the interpolated hub point:

   Mean =   9.7063 m/s
   TI   =   6.3901 %


Processing complete.  2.14239E+05 CPU seconds used.
