
This summary file was generated by TurbSim (from OpenFAST-v3.5.3) on 20-Apr-2025 at 07:20:55.


Runtime Options:

**********  Random seed #1
    RANLUX  Type of random number generator
         F  Output binary HH turbulence parameters?
         F  Output formatted turbulence parameters?
         F  Output AeroDyn HH files?
         T  Output AeroDyn FF files?
         F  Output BLADED FF files?
         F  Output tower data?
         F  Output HAWC FF files?
         F  Output formatted FF files?
         T  Output coherent turbulence time step file?
 0 -  NONE  IEC turbulence models scaled to exact specified standard deviation


Turbine/Model Specifications:

        37  Vertical grid-point matrix dimension
        35  Horizontal grid-point matrix dimension
     0.250  Time step [seconds]
   900.000  Analysis time [seconds]
   900.000  Usable output time [seconds]
    89.350  Hub height [m]
   167.400  Grid height [m]
   158.100  Grid width [m]
     0.000  Vertical flow angle [degrees]
     0.000  Horizontal flow angle [degrees]


Meteorological Boundary Conditions:

    TIMESR  User-input time series spectral model
       N/A  IEC standard
       N/A  IEC turbulence characteristic
       N/A  IEC turbulence type
       N/A  IEC Extreme Turbulence Model (ETM) "c" parameter [m/s]
       PL   Wind profile type
    90.000  Reference height [m]
    10.000  Reference wind speed [m/s]
       N/A  Jet height [m]
     0.120  Power law exponent
     0.030  Surface roughness length [m]


Non-IEC Meteorological Boundary Conditions:

    45.000  Site latitude [degrees]
     0.050  Gradient Richardson number
     0.480  Friction or shear velocity [m/s]
       N/A  Mixing layer depth [m]
       N/A  Mean hub u'w' Reynolds stress
       N/A  Mean hub u'v' Reynolds stress
       N/A  Mean hub v'w' Reynolds stress


Spatial Coherence Models:

       IEC  u-component coherence model
       IEC  v-component coherence model
       IEC  w-component coherence model
(   12.000, 0.353E-03)  u-component coherence parameters
(   12.000, 0.353E-03)  v-component coherence parameters
(   12.000, 0.353E-03)  w-component coherence parameters
       N/A  Coherence exponent


Coherent Turbulence Scaling Parameters:

.\EventData
            Name of the path containing the coherent turbulence data files
       les  Type of coherent turbulence data files
     0.500  Disturbance scale (ratio of wave height to rotor diameter)
     0.500  Fractional location of tower centerline from right
     1.000  Fractional location of hub height from the bottom of the dataset
    30.000  Minimum start time for coherent structures [seconds]


Profiles from User-Defined Time-Series Input:

  Height   Wind Speed   Horizontal Angle   Vertical Angle
   (m)        (m/s)          (deg)              (deg)    
  ------   ----------   ----------------   --------------
   94.00      10.00          -0.63               -0.00


You have requested that the following file(s) be generated:

   /kfs3/scratch/agupta/Projects/RL_Incubator/FinalRuns_Veer/Seed4/./FFSim_Seed4/Cond00_v10.0_PL0.12_TI6.0/Case1_wdirp02/Seed_9/TurbSim/HighT11.bts (AeroDyn/TurbSim full-field wind file)


Turbulence Simulation Scaling Parameter Summary:

   Turbulence model used                            =  User-input time series
   Gradient Richardson number                       =    0.050
   Monin-Obukhov (M-O) z/L parameter                =    0.067
   Monin-Obukhov (M-O) length scale                 = 1340.250 m
   Mean wind speed at hub height                    =    9.991 m/s

   Wind profile type                                =  Power law
   Power law exponent                               =    0.120
   Mean shear across rotor disk                     =    0.019 (m/s)/m
   Assumed rotor diameter                           =  158.100 m
   Surface roughness length                         =    0.030 m

   Nyquist frequency of turbulent wind field        =    2.000 Hz

   Number of time steps in the FFT                  =     3600
   Number of time steps output                      =     3600
   Number of points simulated                       =     1296


Mean Flow Angles:

   Vertical   =   0.0 degrees
   Horizontal =   0.0 degrees

Mean Wind Speed Profile:

   Height    Wind Speed   Horizontal Angle  Vertical Angle  U-comp (X)   V-comp (Y)   W-comp (Z)
     (m)        (m/s)         (degrees)       (degrees)       (m/s)        (m/s)        (m/s)   
   ------    ----------   ----------------  --------------  ----------   ----------   ----------
    168.4       10.78            0.00            0.00         10.78         0.00         0.00
    163.7       10.74            0.00            0.00         10.74         0.00         0.00
    159.1       10.71            0.00            0.00         10.71         0.00         0.00
    154.4       10.67            0.00            0.00         10.67         0.00         0.00
    149.8       10.63            0.00            0.00         10.63         0.00         0.00
    145.1       10.59            0.00            0.00         10.59         0.00         0.00
    140.5       10.55            0.00            0.00         10.55         0.00         0.00
    135.8       10.51            0.00            0.00         10.51         0.00         0.00
    131.2       10.46            0.00            0.00         10.46         0.00         0.00
    126.5       10.42            0.00            0.00         10.42         0.00         0.00
    121.9       10.37            0.00            0.00         10.37         0.00         0.00
    117.2       10.32            0.00            0.00         10.32         0.00         0.00
    112.6       10.27            0.00            0.00         10.27         0.00         0.00
    107.9       10.22            0.00            0.00         10.22         0.00         0.00
    103.3       10.17            0.00            0.00         10.17         0.00         0.00
     98.6       10.11            0.00            0.00         10.11         0.00         0.00
     94.0       10.05            0.00            0.00         10.05         0.00         0.00
     89.3        9.99            0.00            0.00          9.99         0.00         0.00
     84.7        9.93            0.00            0.00          9.93         0.00         0.00
     80.0        9.86            0.00            0.00          9.86         0.00         0.00
     75.4        9.79            0.00            0.00          9.79         0.00         0.00
     70.7        9.72            0.00            0.00          9.72         0.00         0.00
     66.1        9.64            0.00            0.00          9.64         0.00         0.00
     61.4        9.55            0.00            0.00          9.55         0.00         0.00
     56.8        9.46            0.00            0.00          9.46         0.00         0.00
     52.1        9.37            0.00            0.00          9.37         0.00         0.00
     47.5        9.26            0.00            0.00          9.26         0.00         0.00
     42.8        9.15            0.00            0.00          9.15         0.00         0.00
     38.2        9.02            0.00            0.00          9.02         0.00         0.00
     33.5        8.88            0.00            0.00          8.88         0.00         0.00
     28.9        8.73            0.00            0.00          8.73         0.00         0.00
     24.2        8.54            0.00            0.00          8.54         0.00         0.00
     19.6        8.33            0.00            0.00          8.33         0.00         0.00
     14.9        8.06            0.00            0.00          8.06         0.00         0.00
     10.3        7.71            0.00            0.00          7.71         0.00         0.00
      5.6        7.17            0.00            0.00          7.17         0.00         0.00
      1.0        5.83            0.00            0.00          5.83         0.00         0.00


Harvested Random Seeds after Generation of the Random Numbers:

     65026800 K 1
            0 K 2


Hub-Height Simulated Turbulence Statistical Summary:

   Type of Wind        Min (m/s)   Mean (m/s)    Max (m/s)  Sigma (m/s)       TI (%)
   ----------------    ---------   ----------    ---------  -----------       ------
   Longitudinal (u)         8.25         9.99        11.59        0.555        5.554
   Lateral (v)             -1.46         0.00         1.40        0.466        4.665
   Vertical (w)            -1.06         0.00         0.88        0.287        2.870
   U component              8.25         9.99        11.59        0.555        5.554
   V component             -1.46         0.00         1.40        0.466        4.665
   W component             -1.06         0.00         0.88        0.287        2.870
   Horizontal (U&V)         8.28        10.00        11.60        0.555        5.544
   Total                    8.30        10.01        11.61        0.554        5.538

                       Min Reynolds     Mean Reynolds    Max Reynolds    Correlation
   Product             Stress (m/s)^2   Stress (m/s)^2   Stress (m/s)^2  Coefficient
   ----------------    --------------   --------------   --------------  -----------
   u'w'                     -0.887             0.017             1.107         0.110
   u'v'                     -1.136             0.028             1.175         0.109
   v'w'                     -0.644            -0.001             0.751        -0.007


   Friction Velocity (Ustar)  =      0.132 m/s
   Maximum Instantaneous TKE  =      1.913 (m/s)^2
   Maximum Instantaneous CTKE =      0.849 (m/s)^2


Grid Point Variance Summary:

   Y-coord  -79.05  -74.40  -69.75  -65.10  -60.45  -55.80  -51.15  -46.50  -41.85  -37.20  -32.55  -27.90  -23.25  -18.60  -13.95   -9.30   -4.65    0.00    4.65    9.30   13.95   18.60   23.25   27.90   32.55   37.20   41.85   46.50   51.15   55.80   60.45   65.10   69.75   74.40   79.05

   Height   Standard deviation at grid points for the u component:
   168.40    0.745   0.719   0.708   0.647   0.628   0.619   0.627   0.633   0.653   0.614   0.629   0.616   0.609   0.566   0.573   0.542   0.571   0.576   0.562   0.550   0.548   0.523   0.504   0.491   0.460   0.485   0.531   0.525   0.524   0.516   0.555   0.551   0.522   0.518   0.508
   163.75    0.757   0.687   0.707   0.662   0.661   0.658   0.701   0.659   0.678   0.672   0.661   0.621   0.596   0.560   0.529   0.534   0.560   0.552   0.554   0.541   0.516   0.493   0.464   0.466   0.474   0.492   0.513   0.518   0.516   0.524   0.512   0.517   0.506   0.525   0.514
   159.10    0.736   0.722   0.723   0.691   0.683   0.697   0.698   0.718   0.728   0.697   0.690   0.619   0.575   0.575   0.553   0.533   0.535   0.535   0.530   0.545   0.508   0.508   0.482   0.452   0.496   0.481   0.499   0.513   0.522   0.525   0.546   0.520   0.506   0.510   0.530
   154.45    0.763   0.739   0.714   0.721   0.707   0.700   0.687   0.699   0.686   0.676   0.646   0.650   0.604   0.583   0.541   0.535   0.529   0.514   0.528   0.535   0.496   0.478   0.451   0.436   0.490   0.501   0.486   0.502   0.514   0.528   0.504   0.501   0.502   0.467   0.494
   149.80    0.766   0.747   0.704   0.733   0.705   0.699   0.714   0.701   0.743   0.702   0.664   0.693   0.655   0.626   0.595   0.535   0.510   0.530   0.547   0.528   0.495   0.481   0.449   0.463   0.482   0.483   0.509   0.477   0.491   0.481   0.481   0.517   0.506   0.507   0.524
   145.15    0.743   0.724   0.722   0.734   0.726   0.711   0.686   0.692   0.693   0.696   0.687   0.673   0.667   0.625   0.594   0.551   0.516   0.548   0.564   0.518   0.528   0.505   0.478   0.480   0.487   0.454   0.496   0.519   0.516   0.492   0.452   0.501   0.527   0.522   0.514
   140.50    0.775   0.740   0.730   0.722   0.704   0.734   0.726   0.692   0.706   0.719   0.686   0.667   0.638   0.630   0.587   0.571   0.562   0.549   0.571   0.543   0.529   0.523   0.521   0.479   0.483   0.486   0.494   0.523   0.529   0.512   0.495   0.501   0.523   0.535   0.514
   135.85    0.752   0.752   0.772   0.745   0.731   0.717   0.733   0.706   0.725   0.723   0.703   0.637   0.634   0.585   0.587   0.604   0.590   0.589   0.592   0.537   0.508   0.546   0.519   0.505   0.500   0.493   0.523   0.513   0.512   0.543   0.535   0.535   0.542   0.547   0.529
   131.20    0.733   0.746   0.765   0.770   0.736   0.740   0.691   0.725   0.721   0.698   0.666   0.646   0.601   0.583   0.597   0.566   0.601   0.583   0.565   0.523   0.522   0.540   0.532   0.515   0.508   0.510   0.537   0.549   0.553   0.584   0.561   0.560   0.571   0.549   0.550
   126.55    0.703   0.719   0.728   0.739   0.724   0.715   0.685   0.708   0.712   0.688   0.617   0.639   0.610   0.615   0.610   0.586   0.625   0.639   0.596   0.547   0.543   0.516   0.506   0.511   0.515   0.533   0.573   0.562   0.568   0.587   0.572   0.559   0.520   0.534   0.537
   121.90    0.720   0.706   0.692   0.666   0.665   0.655   0.658   0.686   0.678   0.666   0.637   0.611   0.629   0.640   0.602   0.616   0.635   0.594   0.537   0.524   0.516   0.494   0.530   0.519   0.521   0.509   0.582   0.552   0.551   0.559   0.540   0.551   0.541   0.527   0.542
   117.25    0.680   0.684   0.686   0.605   0.602   0.562   0.638   0.658   0.678   0.653   0.630   0.584   0.600   0.616   0.626   0.621   0.614   0.603   0.547   0.524   0.525   0.514   0.517   0.513   0.502   0.518   0.577   0.541   0.533   0.525   0.522   0.522   0.558   0.544   0.507
   112.60    0.649   0.671   0.652   0.627   0.588   0.570   0.590   0.626   0.641   0.647   0.588   0.603   0.590   0.598   0.645   0.615   0.597   0.615   0.550   0.509   0.520   0.506   0.504   0.537   0.517   0.526   0.551   0.558   0.527   0.519   0.517   0.510   0.529   0.515   0.534
   107.95    0.615   0.667   0.654   0.620   0.603   0.570   0.568   0.611   0.660   0.647   0.612   0.640   0.615   0.656   0.653   0.627   0.611   0.576   0.581   0.570   0.535   0.506   0.512   0.515   0.525   0.534   0.539   0.536   0.537   0.508   0.482   0.505   0.497   0.478   0.543
   103.30    0.644   0.646   0.617   0.592   0.578   0.555   0.580   0.605   0.630   0.645   0.638   0.624   0.625   0.666   0.637   0.613   0.566   0.584   0.565   0.535   0.554   0.548   0.518   0.480   0.530   0.529   0.534   0.542   0.550   0.501   0.501   0.493   0.489   0.496   0.524
    98.65    0.638   0.620   0.615   0.587   0.577   0.560   0.600   0.625   0.605   0.616   0.615   0.626   0.618   0.659   0.636   0.605   0.590   0.558   0.569   0.559   0.592   0.547   0.517   0.523   0.521   0.545   0.532   0.530   0.523   0.493   0.469   0.477   0.473   0.504   0.487
    94.00    0.600   0.562   0.565   0.565   0.565   0.545   0.591   0.586   0.572   0.627   0.631   0.653   0.627   0.635   0.672   0.649   0.629   0.556   0.552   0.564   0.551   0.547   0.521   0.524   0.549   0.556   0.559   0.511   0.489   0.478   0.455   0.454   0.469   0.474   0.503
    89.35    0.597   0.547   0.532   0.541   0.534   0.546   0.559   0.577   0.590   0.608   0.613   0.643   0.635   0.657   0.661   0.626   0.598   0.555   0.564   0.538   0.574   0.525   0.513   0.549   0.540   0.522   0.532   0.489   0.465   0.478   0.454   0.489   0.492   0.509   0.502
    84.70    0.571   0.564   0.566   0.555   0.576   0.545   0.583   0.554   0.589   0.585   0.601   0.627   0.663   0.668   0.654   0.599   0.558   0.518   0.573   0.549   0.562   0.560   0.529   0.529   0.525   0.527   0.503   0.497   0.485   0.496   0.494   0.524   0.539   0.533   0.522
    80.05    0.547   0.567   0.568   0.578   0.604   0.592   0.564   0.561   0.561   0.597   0.588   0.604   0.619   0.640   0.603   0.557   0.551   0.556   0.558   0.573   0.559   0.574   0.526   0.505   0.488   0.517   0.495   0.509   0.492   0.504   0.511   0.536   0.519   0.515   0.506
    75.40    0.558   0.555   0.589   0.600   0.582   0.577   0.569   0.534   0.546   0.561   0.517   0.555   0.598   0.625   0.589   0.572   0.555   0.587   0.566   0.598   0.576   0.585   0.548   0.536   0.513   0.542   0.502   0.544   0.529   0.535   0.543   0.535   0.547   0.526   0.506
    70.75    0.521   0.568   0.602   0.594   0.599   0.588   0.580   0.544   0.546   0.535   0.527   0.513   0.589   0.627   0.576   0.596   0.572   0.557   0.587   0.616   0.607   0.572   0.545   0.537   0.530   0.519   0.533   0.523   0.533   0.586   0.598   0.549   0.529   0.495   0.512
    66.10    0.539   0.561   0.609   0.610   0.596   0.575   0.547   0.561   0.568   0.553   0.569   0.568   0.574   0.607   0.559   0.579   0.556   0.555   0.580   0.578   0.580   0.587   0.599   0.561   0.533   0.548   0.565   0.535   0.523   0.553   0.567   0.561   0.566   0.567   0.544
    61.45    0.547   0.583   0.598   0.605   0.607   0.595   0.560   0.596   0.624   0.599   0.572   0.592   0.563   0.558   0.527   0.542   0.511   0.508   0.562   0.586   0.599   0.606   0.584   0.584   0.548   0.540   0.541   0.527   0.518   0.505   0.534   0.532   0.564   0.565   0.563
    56.80    0.532   0.601   0.617   0.649   0.642   0.620   0.631   0.608   0.624   0.605   0.585   0.582   0.593   0.570   0.516   0.528   0.547   0.528   0.564   0.575   0.557   0.552   0.593   0.597   0.572   0.563   0.551   0.515   0.514   0.532   0.523   0.521   0.536   0.549   0.540
    52.15    0.546   0.566   0.580   0.622   0.638   0.626   0.644   0.612   0.609   0.600   0.610   0.584   0.573   0.538   0.503   0.533   0.537   0.516   0.540   0.566   0.566   0.576   0.579   0.570   0.570   0.558   0.561   0.545   0.562   0.540   0.532   0.517   0.491   0.494   0.529
    47.50    0.534   0.561   0.593   0.617   0.601   0.604   0.608   0.638   0.618   0.603   0.590   0.608   0.568   0.552   0.526   0.533   0.513   0.522   0.525   0.536   0.549   0.539   0.533   0.555   0.546   0.523   0.521   0.532   0.542   0.570   0.558   0.542   0.488   0.468   0.482
    42.85    0.564   0.579   0.594   0.563   0.591   0.582   0.563   0.594   0.599   0.606   0.561   0.567   0.566   0.530   0.514   0.531   0.509   0.519   0.531   0.576   0.599   0.560   0.599   0.543   0.564   0.487   0.489   0.507   0.517   0.545   0.527   0.535   0.493   0.513   0.501
    38.20    0.557   0.570   0.563   0.540   0.547   0.577   0.570   0.556   0.562   0.565   0.570   0.551   0.545   0.532   0.515   0.532   0.558   0.546   0.556   0.569   0.589   0.586   0.565   0.553   0.533   0.538   0.516   0.519   0.533   0.550   0.579   0.570   0.549   0.520   0.501
    33.55    0.561   0.555   0.561   0.530   0.541   0.546   0.537   0.567   0.554   0.554   0.577   0.563   0.553   0.528   0.526   0.537   0.531   0.557   0.561   0.576   0.577   0.569   0.551   0.541   0.538   0.566   0.546   0.545   0.564   0.595   0.564   0.568   0.559   0.536   0.496
    28.90    0.557   0.556   0.582   0.544   0.541   0.547   0.549   0.549   0.521   0.525   0.551   0.560   0.542   0.510   0.540   0.572   0.571   0.559   0.601   0.590   0.609   0.591   0.584   0.578   0.556   0.573   0.567   0.545   0.541   0.578   0.585   0.569   0.566   0.517   0.497
    24.25    0.564   0.546   0.568   0.546   0.541   0.548   0.527   0.508   0.512   0.565   0.537   0.574   0.563   0.565   0.552   0.561   0.600   0.597   0.600   0.610   0.599   0.618   0.631   0.606   0.569   0.583   0.560   0.538   0.557   0.543   0.605   0.617   0.598   0.509   0.500
    19.60    0.545   0.569   0.560   0.561   0.515   0.543   0.541   0.516   0.532   0.533   0.564   0.568   0.552   0.566   0.547   0.579   0.564   0.553   0.594   0.594   0.608   0.634   0.612   0.584   0.587   0.564   0.566   0.566   0.581   0.574   0.586   0.608   0.614   0.530   0.507
    14.95    0.530   0.580   0.554   0.554   0.528   0.543   0.544   0.529   0.544   0.559   0.596   0.563   0.576   0.567   0.583   0.605   0.573   0.557   0.594   0.614   0.629   0.642   0.603   0.595   0.592   0.588   0.585   0.556   0.608   0.567   0.610   0.606   0.558   0.532   0.493
    10.30    0.528   0.552   0.547   0.548   0.540   0.538   0.526   0.550   0.565   0.550   0.588   0.576   0.579   0.625   0.583   0.590   0.561   0.584   0.601   0.576   0.588   0.596   0.625   0.638   0.599   0.616   0.627   0.620   0.602   0.593   0.562   0.564   0.553   0.509   0.513
     5.65    0.534   0.573   0.533   0.558   0.566   0.548   0.533   0.539   0.556   0.560   0.558   0.557   0.583   0.591   0.573   0.611   0.606   0.615   0.594   0.576   0.585   0.658   0.628   0.591   0.603   0.619   0.637   0.620   0.619   0.596   0.590   0.549   0.539   0.545   0.489
     1.00    0.579   0.558   0.570   0.561   0.535   0.543   0.540   0.559   0.581   0.570   0.573   0.575   0.583   0.589   0.603   0.616   0.595   0.618   0.599   0.641   0.647   0.701   0.651   0.636   0.599   0.629   0.625   0.637   0.657   0.611   0.558   0.542   0.559   0.550   0.518

   Height   Standard deviation at grid points for the v component:
   168.40    0.433   0.439   0.417   0.433   0.447   0.461   0.487   0.473   0.459   0.440   0.436   0.454   0.436   0.444   0.448   0.471   0.489   0.469   0.489   0.476   0.471   0.500   0.489   0.483   0.526   0.493   0.478   0.482   0.506   0.505   0.519   0.542   0.525   0.514   0.456
   163.75    0.465   0.447   0.460   0.469   0.422   0.444   0.462   0.471   0.465   0.457   0.444   0.433   0.453   0.420   0.451   0.470   0.486   0.470   0.471   0.455   0.464   0.483   0.506   0.484   0.507   0.499   0.511   0.533   0.517   0.500   0.516   0.505   0.498   0.500   0.468
   159.10    0.460   0.453   0.458   0.457   0.433   0.427   0.440   0.451   0.471   0.468   0.437   0.420   0.436   0.432   0.436   0.460   0.462   0.462   0.452   0.460   0.487   0.469   0.482   0.470   0.483   0.500   0.517   0.514   0.514   0.501   0.486   0.471   0.454   0.483   0.445
   154.45    0.441   0.441   0.444   0.437   0.435   0.469   0.434   0.465   0.460   0.450   0.453   0.449   0.431   0.401   0.434   0.456   0.456   0.463   0.456   0.465   0.454   0.478   0.499   0.494   0.459   0.485   0.498   0.528   0.511   0.514   0.484   0.448   0.448   0.470   0.451
   149.80    0.450   0.447   0.454   0.462   0.459   0.462   0.481   0.473   0.458   0.462   0.447   0.435   0.405   0.401   0.434   0.431   0.447   0.465   0.471   0.457   0.470   0.474   0.492   0.502   0.480   0.482   0.521   0.523   0.521   0.519   0.488   0.442   0.465   0.461   0.450
   145.15    0.450   0.457   0.465   0.475   0.478   0.443   0.459   0.468   0.453   0.466   0.445   0.423   0.433   0.421   0.404   0.416   0.431   0.438   0.452   0.467   0.494   0.501   0.495   0.503   0.493   0.517   0.510   0.508   0.508   0.497   0.493   0.458   0.431   0.463   0.467
   140.50    0.441   0.445   0.458   0.464   0.454   0.439   0.452   0.448   0.460   0.458   0.446   0.443   0.433   0.410   0.394   0.417   0.417   0.441   0.494   0.497   0.495   0.523   0.524   0.502   0.521   0.530   0.543   0.506   0.511   0.517   0.493   0.474   0.468   0.477   0.458
   135.85    0.441   0.462   0.447   0.458   0.474   0.484   0.458   0.470   0.445   0.436   0.453   0.451   0.431   0.417   0.423   0.419   0.424   0.463   0.498   0.500   0.498   0.493   0.511   0.535   0.547   0.532   0.536   0.510   0.519   0.499   0.506   0.500   0.489   0.478   0.471
   131.20    0.461   0.459   0.463   0.452   0.465   0.465   0.461   0.421   0.435   0.439   0.458   0.438   0.440   0.442   0.419   0.407   0.437   0.467   0.486   0.492   0.471   0.469   0.508   0.511   0.511   0.524   0.503   0.487   0.502   0.499   0.509   0.502   0.492   0.474   0.456
   126.55    0.492   0.477   0.482   0.475   0.444   0.483   0.474   0.450   0.440   0.455   0.450   0.446   0.432   0.443   0.421   0.430   0.447   0.468   0.464   0.468   0.469   0.478   0.502   0.499   0.515   0.487   0.478   0.477   0.458   0.497   0.506   0.492   0.492   0.456   0.462
   121.90    0.496   0.494   0.500   0.501   0.463   0.479   0.483   0.470   0.449   0.451   0.463   0.412   0.438   0.427   0.434   0.434   0.466   0.482   0.498   0.483   0.492   0.513   0.493   0.482   0.462   0.477   0.477   0.461   0.480   0.483   0.486   0.469   0.470   0.445   0.457
   117.25    0.528   0.519   0.507   0.514   0.496   0.479   0.492   0.469   0.475   0.458   0.440   0.421   0.424   0.430   0.457   0.445   0.484   0.490   0.497   0.523   0.490   0.487   0.468   0.479   0.443   0.453   0.481   0.488   0.482   0.488   0.495   0.484   0.470   0.475   0.447
   112.60    0.517   0.500   0.509   0.530   0.539   0.517   0.461   0.474   0.475   0.445   0.458   0.438   0.441   0.454   0.464   0.488   0.466   0.498   0.511   0.504   0.489   0.468   0.490   0.464   0.487   0.497   0.481   0.493   0.483   0.484   0.457   0.462   0.465   0.476   0.458
   107.95    0.507   0.536   0.533   0.531   0.521   0.513   0.480   0.446   0.468   0.466   0.469   0.470   0.485   0.464   0.493   0.486   0.487   0.498   0.489   0.484   0.497   0.485   0.480   0.463   0.470   0.477   0.467   0.479   0.473   0.468   0.432   0.438   0.461   0.471   0.457
   103.30    0.504   0.532   0.520   0.526   0.512   0.517   0.509   0.475   0.468   0.519   0.497   0.491   0.482   0.481   0.491   0.485   0.506   0.482   0.504   0.515   0.498   0.488   0.480   0.477   0.507   0.504   0.490   0.481   0.465   0.474   0.468   0.458   0.437   0.444   0.438
    98.65    0.497   0.493   0.512   0.505   0.517   0.494   0.475   0.470   0.472   0.494   0.498   0.516   0.492   0.506   0.508   0.492   0.503   0.516   0.526   0.527   0.535   0.504   0.508   0.501   0.504   0.506   0.507   0.492   0.498   0.476   0.471   0.477   0.461   0.440   0.424
    94.00    0.535   0.509   0.517   0.497   0.504   0.504   0.502   0.490   0.482   0.469   0.488   0.487   0.501   0.523   0.495   0.512   0.494   0.476   0.493   0.501   0.512   0.486   0.490   0.503   0.476   0.490   0.492   0.475   0.471   0.464   0.462   0.479   0.458   0.451   0.424
    89.35    0.502   0.505   0.489   0.473   0.472   0.493   0.487   0.487   0.486   0.463   0.465   0.502   0.466   0.499   0.504   0.476   0.460   0.466   0.479   0.465   0.487   0.464   0.468   0.505   0.493   0.483   0.494   0.455   0.477   0.498   0.488   0.489   0.459   0.451   0.441
    84.70    0.510   0.497   0.460   0.465   0.468   0.465   0.490   0.472   0.452   0.462   0.474   0.479   0.486   0.491   0.500   0.491   0.472   0.477   0.496   0.451   0.496   0.464   0.476   0.481   0.502   0.474   0.469   0.462   0.472   0.483   0.471   0.479   0.461   0.462   0.444
    80.05    0.507   0.489   0.479   0.464   0.488   0.459   0.460   0.457   0.468   0.459   0.456   0.469   0.478   0.505   0.534   0.500   0.512   0.482   0.478   0.441   0.466   0.476   0.465   0.454   0.467   0.474   0.497   0.460   0.462   0.474   0.485   0.483   0.455   0.463   0.473
    75.40    0.524   0.491   0.479   0.478   0.496   0.486   0.468   0.451   0.448   0.466   0.464   0.449   0.461   0.518   0.501   0.516   0.507   0.478   0.482   0.455   0.450   0.475   0.476   0.448   0.444   0.476   0.492   0.461   0.468   0.480   0.480   0.475   0.460   0.447   0.462
    70.75    0.534   0.505   0.494   0.490   0.488   0.479   0.450   0.446   0.438   0.440   0.457   0.448   0.469   0.525   0.527   0.522   0.513   0.508   0.491   0.464   0.455   0.469   0.493   0.481   0.458   0.483   0.491   0.459   0.457   0.443   0.480   0.459   0.467   0.476   0.437
    66.10    0.515   0.483   0.483   0.486   0.453   0.464   0.455   0.441   0.458   0.446   0.474   0.469   0.483   0.514   0.530   0.518   0.493   0.481   0.466   0.466   0.474   0.482   0.487   0.480   0.476   0.471   0.466   0.446   0.472   0.495   0.462   0.475   0.467   0.466   0.462
    61.45    0.510   0.529   0.473   0.477   0.437   0.452   0.462   0.449   0.459   0.455   0.481   0.487   0.485   0.494   0.498   0.487   0.475   0.457   0.437   0.444   0.472   0.503   0.513   0.495   0.478   0.477   0.450   0.472   0.458   0.491   0.496   0.477   0.491   0.503   0.485
    56.80    0.500   0.481   0.478   0.490   0.461   0.462   0.438   0.429   0.440   0.451   0.455   0.471   0.478   0.493   0.477   0.451   0.470   0.467   0.444   0.445   0.480   0.485   0.484   0.467   0.470   0.461   0.447   0.456   0.465   0.490   0.523   0.514   0.510   0.517   0.495
    52.15    0.489   0.481   0.470   0.492   0.487   0.470   0.465   0.452   0.442   0.430   0.440   0.462   0.475   0.473   0.481   0.449   0.448   0.454   0.462   0.446   0.479   0.473   0.479   0.464   0.470   0.485   0.498   0.471   0.467   0.487   0.499   0.524   0.512   0.505   0.503
    47.50    0.464   0.484   0.498   0.490   0.523   0.499   0.470   0.457   0.452   0.439   0.443   0.442   0.459   0.460   0.452   0.425   0.433   0.419   0.425   0.456   0.467   0.487   0.476   0.466   0.466   0.482   0.491   0.483   0.477   0.499   0.489   0.501   0.516   0.534   0.508
    42.85    0.456   0.488   0.498   0.504   0.484   0.479   0.474   0.447   0.433   0.428   0.442   0.460   0.467   0.461   0.439   0.447   0.429   0.408   0.418   0.465   0.475   0.444   0.463   0.468   0.466   0.479   0.487   0.489   0.521   0.518   0.510   0.498   0.512   0.512   0.510
    38.20    0.482   0.494   0.478   0.492   0.459   0.464   0.456   0.448   0.419   0.439   0.433   0.452   0.453   0.445   0.443   0.440   0.423   0.421   0.441   0.479   0.457   0.456   0.464   0.471   0.489   0.492   0.479   0.487   0.501   0.538   0.540   0.531   0.520   0.504   0.487
    33.55    0.474   0.497   0.488   0.461   0.483   0.453   0.477   0.445   0.436   0.444   0.466   0.438   0.432   0.439   0.441   0.444   0.442   0.459   0.463   0.483   0.464   0.460   0.465   0.488   0.492   0.519   0.480   0.496   0.536   0.537   0.547   0.512   0.514   0.501   0.499
    28.90    0.486   0.494   0.504   0.485   0.504   0.462   0.477   0.452   0.453   0.431   0.437   0.420   0.414   0.432   0.447   0.462   0.448   0.449   0.459   0.468   0.455   0.468   0.493   0.488   0.486   0.498   0.520   0.520   0.542   0.543   0.504   0.525   0.535   0.513   0.470
    24.25    0.488   0.485   0.505   0.502   0.477   0.455   0.455   0.462   0.460   0.464   0.418   0.412   0.430   0.432   0.450   0.456   0.463   0.444   0.443   0.460   0.440   0.462   0.499   0.469   0.495   0.503   0.504   0.543   0.544   0.528   0.519   0.524   0.524   0.478   0.481
    19.60    0.483   0.481   0.484   0.496   0.468   0.471   0.439   0.451   0.454   0.457   0.449   0.447   0.445   0.449   0.442   0.461   0.458   0.471   0.472   0.472   0.462   0.449   0.469   0.500   0.491   0.505   0.518   0.550   0.541   0.552   0.549   0.508   0.513   0.501   0.505
    14.95    0.465   0.473   0.479   0.483   0.498   0.495   0.469   0.463   0.485   0.488   0.468   0.466   0.458   0.451   0.436   0.457   0.475   0.478   0.479   0.487   0.463   0.472   0.480   0.482   0.475   0.502   0.528   0.524   0.536   0.530   0.547   0.535   0.529   0.515   0.519
    10.30    0.472   0.480   0.437   0.475   0.466   0.467   0.505   0.500   0.474   0.478   0.504   0.486   0.477   0.469   0.474   0.473   0.479   0.469   0.500   0.511   0.507   0.479   0.495   0.477   0.495   0.527   0.532   0.530   0.533   0.523   0.534   0.518   0.499   0.476   0.487
     5.65    0.473   0.467   0.453   0.451   0.471   0.446   0.481   0.491   0.488   0.489   0.505   0.522   0.505   0.493   0.497   0.480   0.488   0.501   0.518   0.510   0.506   0.464   0.490   0.480   0.484   0.489   0.500   0.539   0.506   0.504   0.522   0.504   0.458   0.470   0.484
     1.00    0.456   0.450   0.429   0.433   0.457   0.450   0.484   0.505   0.505   0.496   0.483   0.506   0.502   0.488   0.482   0.493   0.503   0.489   0.488   0.485   0.480   0.471   0.481   0.479   0.466   0.468   0.510   0.528   0.504   0.507   0.517   0.499   0.469   0.460   0.474

   Height   Standard deviation at grid points for the w component:
   168.40    0.292   0.292   0.291   0.292   0.294   0.296   0.303   0.293   0.290   0.287   0.287   0.282   0.298   0.299   0.301   0.293   0.302   0.303   0.301   0.296   0.286   0.276   0.279   0.291   0.282   0.294   0.297   0.292   0.299   0.283   0.289   0.290   0.295   0.284   0.283
   163.75    0.288   0.295   0.306   0.291   0.302   0.296   0.290   0.287   0.296   0.292   0.283   0.285   0.293   0.291   0.287   0.304   0.297   0.300   0.292   0.290   0.286   0.286   0.286   0.294   0.292   0.286   0.293   0.290   0.294   0.294   0.286   0.288   0.291   0.286   0.290
   159.10    0.280   0.288   0.290   0.289   0.296   0.287   0.288   0.279   0.287   0.285   0.279   0.284   0.280   0.288   0.293   0.284   0.296   0.312   0.299   0.290   0.291   0.283   0.292   0.294   0.299   0.289   0.294   0.296   0.285   0.296   0.286   0.288   0.288   0.288   0.289
   154.45    0.278   0.276   0.284   0.291   0.294   0.290   0.291   0.287   0.280   0.288   0.288   0.293   0.286   0.289   0.286   0.283   0.296   0.304   0.300   0.288   0.284   0.283   0.286   0.289   0.286   0.298   0.277   0.285   0.280   0.290   0.303   0.298   0.290   0.291   0.290
   149.80    0.273   0.279   0.286   0.287   0.282   0.287   0.293   0.287   0.287   0.284   0.282   0.289   0.291   0.293   0.292   0.281   0.298   0.289   0.294   0.290   0.282   0.272   0.285   0.282   0.283   0.290   0.287   0.283   0.280   0.297   0.303   0.300   0.300   0.303   0.299
   145.15    0.285   0.286   0.288   0.282   0.270   0.278   0.287   0.291   0.293   0.285   0.280   0.277   0.293   0.289   0.286   0.286   0.295   0.286   0.293   0.288   0.286   0.275   0.281   0.283   0.282   0.278   0.292   0.283   0.280   0.291   0.303   0.294   0.299   0.309   0.300
   140.50    0.284   0.291   0.290   0.272   0.274   0.269   0.282   0.295   0.279   0.280   0.280   0.287   0.295   0.295   0.292   0.292   0.290   0.290   0.282   0.279   0.286   0.266   0.278   0.271   0.280   0.272   0.280   0.295   0.289   0.294   0.297   0.303   0.297   0.305   0.303
   135.85    0.299   0.292   0.286   0.274   0.268   0.270   0.277   0.291   0.277   0.277   0.278   0.279   0.286   0.294   0.292   0.291   0.281   0.283   0.278   0.273   0.278   0.277   0.278   0.273   0.275   0.285   0.278   0.281   0.284   0.284   0.288   0.292   0.289   0.292   0.309
   131.20    0.300   0.298   0.287   0.282   0.279   0.266   0.269   0.270   0.262   0.271   0.284   0.285   0.295   0.288   0.291   0.284   0.275   0.275   0.276   0.269   0.273   0.280   0.274   0.267   0.270   0.275   0.283   0.277   0.279   0.280   0.277   0.277   0.281   0.287   0.297
   126.55    0.296   0.301   0.297   0.287   0.278   0.276   0.277   0.268   0.275   0.278   0.289   0.277   0.282   0.283   0.272   0.274   0.280   0.273   0.269   0.270   0.274   0.266   0.269   0.273   0.266   0.261   0.281   0.290   0.276   0.283   0.282   0.291   0.279   0.283   0.292
   121.90    0.291   0.299   0.293   0.290   0.292   0.277   0.272   0.271   0.269   0.273   0.275   0.284   0.275   0.279   0.278   0.285   0.280   0.278   0.275   0.275   0.267   0.267   0.264   0.274   0.273   0.272   0.289   0.280   0.285   0.282   0.287   0.287   0.294   0.289   0.280
   117.25    0.291   0.291   0.304   0.287   0.285   0.280   0.274   0.272   0.266   0.277   0.283   0.281   0.287   0.284   0.269   0.269   0.280   0.273   0.269   0.270   0.259   0.269   0.268   0.267   0.273   0.269   0.269   0.277   0.287   0.290   0.293   0.293   0.286   0.293   0.285
   112.60    0.298   0.291   0.289   0.275   0.274   0.279   0.282   0.279   0.270   0.276   0.282   0.290   0.277   0.277   0.277   0.274   0.265   0.265   0.262   0.266   0.267   0.269   0.266   0.280   0.285   0.268   0.278   0.277   0.279   0.287   0.288   0.287   0.295   0.285   0.287
   107.95    0.293   0.276   0.279   0.271   0.279   0.287   0.283   0.268   0.278   0.282   0.286   0.281   0.280   0.277   0.279   0.281   0.274   0.264   0.268   0.268   0.272   0.268   0.275   0.287   0.300   0.285   0.283   0.275   0.267   0.273   0.273   0.282   0.289   0.293   0.291
   103.30    0.289   0.273   0.283   0.283   0.279   0.282   0.274   0.268   0.275   0.270   0.271   0.270   0.274   0.283   0.279   0.278   0.265   0.270   0.275   0.270   0.273   0.290   0.278   0.287   0.291   0.288   0.284   0.283   0.269   0.275   0.280   0.275   0.278   0.290   0.299
    98.65    0.296   0.289   0.286   0.295   0.278   0.275   0.263   0.272   0.271   0.270   0.267   0.275   0.273   0.285   0.273   0.272   0.268   0.282   0.283   0.280   0.294   0.281   0.275   0.283   0.277   0.287   0.275   0.290   0.285   0.277   0.278   0.272   0.281   0.291   0.297
    94.00    0.292   0.285   0.283   0.289   0.288   0.273   0.279   0.274   0.283   0.272   0.266   0.267   0.277   0.280   0.285   0.278   0.280   0.290   0.284   0.277   0.280   0.282   0.270   0.272   0.273   0.267   0.282   0.278   0.266   0.265   0.277   0.281   0.277   0.281   0.287
    89.35    0.275   0.287   0.276   0.273   0.286   0.283   0.289   0.286   0.275   0.274   0.272   0.272   0.272   0.277   0.279   0.274   0.292   0.287   0.290   0.281   0.285   0.275   0.279   0.271   0.272   0.286   0.281   0.282   0.280   0.276   0.270   0.274   0.274   0.269   0.284
    84.70    0.288   0.292   0.281   0.272   0.275   0.277   0.292   0.289   0.280   0.277   0.271   0.275   0.267   0.264   0.258   0.270   0.288   0.281   0.274   0.292   0.290   0.288   0.279   0.279   0.275   0.279   0.279   0.277   0.290   0.283   0.279   0.270   0.273   0.274   0.272
    80.05    0.290   0.289   0.281   0.275   0.274   0.273   0.279   0.283   0.280   0.283   0.281   0.267   0.266   0.264   0.256   0.271   0.294   0.284   0.281   0.297   0.283   0.280   0.275   0.280   0.284   0.286   0.286   0.287   0.289   0.279   0.276   0.274   0.275   0.277   0.273
    75.40    0.275   0.285   0.272   0.272   0.276   0.275   0.287   0.282   0.286   0.288   0.284   0.281   0.270   0.258   0.270   0.273   0.277   0.290   0.303   0.292   0.287   0.284   0.275   0.280   0.294   0.286   0.291   0.288   0.292   0.282   0.281   0.285   0.279   0.273   0.280
    70.75    0.287   0.280   0.281   0.278   0.279   0.281   0.280   0.276   0.281   0.279   0.287   0.267   0.256   0.256   0.273   0.273   0.279   0.295   0.301   0.295   0.297   0.291   0.282   0.294   0.287   0.284   0.288   0.285   0.290   0.289   0.280   0.282   0.274   0.275   0.283
    66.10    0.282   0.282   0.281   0.282   0.288   0.285   0.279   0.277   0.273   0.271   0.274   0.274   0.261   0.259   0.264   0.275   0.282   0.289   0.293   0.292   0.290   0.284   0.290   0.285   0.299   0.287   0.287   0.296   0.292   0.287   0.286   0.283   0.282   0.280   0.287
    61.45    0.288   0.282   0.288   0.285   0.286   0.291   0.287   0.274   0.272   0.267   0.273   0.275   0.268   0.271   0.269   0.280   0.280   0.281   0.285   0.290   0.285   0.273   0.282   0.302   0.291   0.287   0.293   0.294   0.299   0.295   0.288   0.276   0.276   0.283   0.278
    56.80    0.286   0.286   0.291   0.284   0.277   0.290   0.289   0.275   0.282   0.274   0.278   0.282   0.274   0.274   0.271   0.278   0.272   0.279   0.273   0.274   0.289   0.282   0.275   0.291   0.286   0.289   0.296   0.293   0.298   0.298   0.282   0.292   0.281   0.280   0.276
    52.15    0.291   0.298   0.276   0.285   0.280   0.283   0.280   0.279   0.278   0.272   0.268   0.271   0.274   0.270   0.271   0.271   0.270   0.276   0.275   0.273   0.269   0.285   0.283   0.281   0.287   0.296   0.302   0.302   0.299   0.295   0.294   0.285   0.282   0.268   0.265
    47.50    0.287   0.289   0.287   0.283   0.280   0.278   0.275   0.274   0.272   0.276   0.275   0.263   0.281   0.278   0.271   0.273   0.273   0.273   0.274   0.279   0.272   0.282   0.276   0.291   0.293   0.290   0.290   0.302   0.306   0.299   0.288   0.277   0.281   0.271   0.278
    42.85    0.283   0.276   0.284   0.276   0.274   0.281   0.277   0.266   0.272   0.267   0.265   0.268   0.276   0.281   0.279   0.286   0.273   0.278   0.281   0.281   0.277   0.281   0.274   0.287   0.297   0.289   0.285   0.289   0.289   0.289   0.294   0.287   0.290   0.280   0.281
    38.20    0.279   0.272   0.283   0.285   0.265   0.283   0.281   0.266   0.263   0.269   0.262   0.269   0.267   0.275   0.285   0.282   0.279   0.271   0.280   0.280   0.278   0.273   0.280   0.288   0.285   0.286   0.284   0.288   0.272   0.279   0.284   0.279   0.284   0.282   0.283
    33.55    0.269   0.276   0.282   0.284   0.281   0.277   0.284   0.275   0.265   0.260   0.280   0.272   0.275   0.275   0.284   0.282   0.282   0.274   0.278   0.278   0.276   0.282   0.281   0.278   0.277   0.277   0.289   0.286   0.276   0.278   0.281   0.272   0.281   0.279   0.278
    28.90    0.274   0.283   0.276   0.288   0.280   0.290   0.290   0.287   0.268   0.269   0.276   0.279   0.288   0.284   0.280   0.275   0.275   0.285   0.285   0.280   0.282   0.288   0.286   0.276   0.266   0.273   0.280   0.274   0.276   0.273   0.281   0.275   0.277   0.291   0.283
    24.25    0.269   0.284   0.284   0.282   0.284   0.289   0.286   0.286   0.279   0.271   0.271   0.270   0.285   0.275   0.272   0.272   0.271   0.285   0.282   0.275   0.285   0.288   0.279   0.272   0.278   0.271   0.276   0.284   0.281   0.281   0.291   0.279   0.286   0.276   0.287
    19.60    0.283   0.285   0.283   0.282   0.267   0.277   0.277   0.274   0.275   0.269   0.267   0.272   0.278   0.276   0.260   0.278   0.272   0.279   0.277   0.278   0.284   0.278   0.276   0.275   0.272   0.268   0.274   0.279   0.285   0.281   0.284   0.282   0.280   0.271   0.292
    14.95    0.278   0.285   0.283   0.279   0.276   0.283   0.278   0.266   0.277   0.277   0.279   0.275   0.276   0.279   0.269   0.277   0.271   0.275   0.281   0.278   0.276   0.268   0.280   0.282   0.271   0.271   0.278   0.282   0.292   0.285   0.285   0.290   0.292   0.292   0.281
    10.30    0.281   0.283   0.291   0.276   0.277   0.281   0.273   0.285   0.290   0.294   0.285   0.282   0.281   0.269   0.266   0.279   0.272   0.281   0.285   0.289   0.279   0.283   0.276   0.279   0.280   0.291   0.278   0.281   0.286   0.279   0.280   0.287   0.294   0.294   0.284
     5.65    0.275   0.271   0.276   0.277   0.275   0.281   0.274   0.284   0.290   0.304   0.303   0.291   0.293   0.292   0.286   0.291   0.286   0.289   0.282   0.297   0.286   0.288   0.273   0.284   0.292   0.281   0.283   0.286   0.284   0.274   0.274   0.272   0.283   0.287   0.289
     1.00    0.282   0.274   0.273   0.277   0.278   0.285   0.287   0.295   0.297   0.289   0.296   0.287   0.286   0.297   0.293   0.288   0.280   0.291   0.287   0.282   0.277   0.278   0.271   0.278   0.289   0.283   0.284   0.285   0.281   0.276   0.280   0.283   0.283   0.283   0.276

   Mean standard deviation across all grid points:
      u component:    0.572 m/s
      v component:    0.477 m/s
      w component:    0.282 m/s


U-component (X) statistics from the interpolated hub point:

   Mean =   9.9913 m/s
   TI   =   5.5537 %


Processing complete.  6279 CPU seconds used.
