
This summary file was generated by TurbSim (from OpenFAST-v3.5.3) on 20-Apr-2025 at 06:51:54.


Runtime Options:

1341164796  Random seed #1
    RANLUX  Type of random number generator
         F  Output binary HH turbulence parameters?
         F  Output formatted turbulence parameters?
         F  Output AeroDyn HH files?
         T  Output AeroDyn FF files?
         F  Output BLADED FF files?
         F  Output tower data?
         F  Output HAWC FF files?
         F  Output formatted FF files?
         T  Output coherent turbulence time step file?
 0 -  NONE  IEC turbulence models scaled to exact specified standard deviation


Turbine/Model Specifications:

        37  Vertical grid-point matrix dimension
        35  Horizontal grid-point matrix dimension
     0.250  Time step [seconds]
   900.000  Analysis time [seconds]
   900.000  Usable output time [seconds]
    89.350  Hub height [m]
   167.400  Grid height [m]
   158.100  Grid width [m]
     0.000  Vertical flow angle [degrees]
     0.000  Horizontal flow angle [degrees]


Meteorological Boundary Conditions:

    TIMESR  User-input time series spectral model
       N/A  IEC standard
       N/A  IEC turbulence characteristic
       N/A  IEC turbulence type
       N/A  IEC Extreme Turbulence Model (ETM) "c" parameter [m/s]
       PL   Wind profile type
    90.000  Reference height [m]
    10.000  Reference wind speed [m/s]
       N/A  Jet height [m]
     0.120  Power law exponent
     0.030  Surface roughness length [m]


Non-IEC Meteorological Boundary Conditions:

    45.000  Site latitude [degrees]
     0.050  Gradient Richardson number
     0.480  Friction or shear velocity [m/s]
       N/A  Mixing layer depth [m]
       N/A  Mean hub u'w' Reynolds stress
       N/A  Mean hub u'v' Reynolds stress
       N/A  Mean hub v'w' Reynolds stress


Spatial Coherence Models:

       IEC  u-component coherence model
       IEC  v-component coherence model
       IEC  w-component coherence model
(   12.000, 0.353E-03)  u-component coherence parameters
(   12.000, 0.353E-03)  v-component coherence parameters
(   12.000, 0.353E-03)  w-component coherence parameters
       N/A  Coherence exponent


Coherent Turbulence Scaling Parameters:

.\EventData
            Name of the path containing the coherent turbulence data files
       les  Type of coherent turbulence data files
     0.500  Disturbance scale (ratio of wave height to rotor diameter)
     0.500  Fractional location of tower centerline from right
     1.000  Fractional location of hub height from the bottom of the dataset
    30.000  Minimum start time for coherent structures [seconds]


Profiles from User-Defined Time-Series Input:

  Height   Wind Speed   Horizontal Angle   Vertical Angle
   (m)        (m/s)          (deg)              (deg)    
  ------   ----------   ----------------   --------------
   94.00      10.00          -0.63               -0.00


You have requested that the following file(s) be generated:

   /kfs3/scratch/agupta/Projects/RL_Incubator/FinalRuns_Veer/Seed4/./FFSim_Seed4/Cond00_v10.0_PL0.12_TI3.0/Case1_wdirp02/Seed_8/TurbSim/HighT3.bts (AeroDyn/TurbSim full-field wind file)


Turbulence Simulation Scaling Parameter Summary:

   Turbulence model used                            =  User-input time series
   Gradient Richardson number                       =    0.050
   Monin-Obukhov (M-O) z/L parameter                =    0.067
   Monin-Obukhov (M-O) length scale                 = 1340.250 m
   Mean wind speed at hub height                    =    9.991 m/s

   Wind profile type                                =  Power law
   Power law exponent                               =    0.120
   Mean shear across rotor disk                     =    0.019 (m/s)/m
   Assumed rotor diameter                           =  158.100 m
   Surface roughness length                         =    0.030 m

   Nyquist frequency of turbulent wind field        =    2.000 Hz

   Number of time steps in the FFT                  =     3600
   Number of time steps output                      =     3600
   Number of points simulated                       =     1296


Mean Flow Angles:

   Vertical   =   0.0 degrees
   Horizontal =   0.0 degrees

Mean Wind Speed Profile:

   Height    Wind Speed   Horizontal Angle  Vertical Angle  U-comp (X)   V-comp (Y)   W-comp (Z)
     (m)        (m/s)         (degrees)       (degrees)       (m/s)        (m/s)        (m/s)   
   ------    ----------   ----------------  --------------  ----------   ----------   ----------
    168.4       10.78            0.00            0.00         10.78         0.00         0.00
    163.7       10.74            0.00            0.00         10.74         0.00         0.00
    159.1       10.71            0.00            0.00         10.71         0.00         0.00
    154.4       10.67            0.00            0.00         10.67         0.00         0.00
    149.8       10.63            0.00            0.00         10.63         0.00         0.00
    145.1       10.59            0.00            0.00         10.59         0.00         0.00
    140.5       10.55            0.00            0.00         10.55         0.00         0.00
    135.8       10.51            0.00            0.00         10.51         0.00         0.00
    131.2       10.46            0.00            0.00         10.46         0.00         0.00
    126.5       10.42            0.00            0.00         10.42         0.00         0.00
    121.9       10.37            0.00            0.00         10.37         0.00         0.00
    117.2       10.32            0.00            0.00         10.32         0.00         0.00
    112.6       10.27            0.00            0.00         10.27         0.00         0.00
    107.9       10.22            0.00            0.00         10.22         0.00         0.00
    103.3       10.17            0.00            0.00         10.17         0.00         0.00
     98.6       10.11            0.00            0.00         10.11         0.00         0.00
     94.0       10.05            0.00            0.00         10.05         0.00         0.00
     89.3        9.99            0.00            0.00          9.99         0.00         0.00
     84.7        9.93            0.00            0.00          9.93         0.00         0.00
     80.0        9.86            0.00            0.00          9.86         0.00         0.00
     75.4        9.79            0.00            0.00          9.79         0.00         0.00
     70.7        9.72            0.00            0.00          9.72         0.00         0.00
     66.1        9.64            0.00            0.00          9.64         0.00         0.00
     61.4        9.55            0.00            0.00          9.55         0.00         0.00
     56.8        9.46            0.00            0.00          9.46         0.00         0.00
     52.1        9.37            0.00            0.00          9.37         0.00         0.00
     47.5        9.26            0.00            0.00          9.26         0.00         0.00
     42.8        9.15            0.00            0.00          9.15         0.00         0.00
     38.2        9.02            0.00            0.00          9.02         0.00         0.00
     33.5        8.88            0.00            0.00          8.88         0.00         0.00
     28.9        8.73            0.00            0.00          8.73         0.00         0.00
     24.2        8.54            0.00            0.00          8.54         0.00         0.00
     19.6        8.33            0.00            0.00          8.33         0.00         0.00
     14.9        8.06            0.00            0.00          8.06         0.00         0.00
     10.3        7.71            0.00            0.00          7.71         0.00         0.00
      5.6        7.17            0.00            0.00          7.17         0.00         0.00
      1.0        5.83            0.00            0.00          5.83         0.00         0.00


Harvested Random Seeds after Generation of the Random Numbers:

     65026800 K 1
            0 K 2


Hub-Height Simulated Turbulence Statistical Summary:

   Type of Wind        Min (m/s)   Mean (m/s)    Max (m/s)  Sigma (m/s)       TI (%)
   ----------------    ---------   ----------    ---------  -----------       ------
   Longitudinal (u)         9.19         9.99        11.03        0.254        2.546
   Lateral (v)             -0.60         0.00         0.89        0.215        2.150
   Vertical (w)            -0.49        -0.00         0.55        0.142        1.419
   U component              9.19         9.99        11.03        0.254        2.546
   V component             -0.60         0.00         0.89        0.215        2.150
   W component             -0.49        -0.00         0.55        0.142        1.419
   Horizontal (U&V)         9.20         9.99        11.03        0.254        2.543
   Total                    9.20         9.99        11.03        0.254        2.542

                       Min Reynolds     Mean Reynolds    Max Reynolds    Correlation
   Product             Stress (m/s)^2   Stress (m/s)^2   Stress (m/s)^2  Coefficient
   ----------------    --------------   --------------   --------------  -----------
   u'w'                     -0.207            -0.000             0.162        -0.002
   u'v'                     -0.421             0.002             0.405         0.036
   v'w'                     -0.194            -0.003             0.117        -0.108


   Friction Velocity (Ustar)  =      0.009 m/s
   Maximum Instantaneous TKE  =      0.540 (m/s)^2
   Maximum Instantaneous CTKE =      0.227 (m/s)^2


Grid Point Variance Summary:

   Y-coord  -79.05  -74.40  -69.75  -65.10  -60.45  -55.80  -51.15  -46.50  -41.85  -37.20  -32.55  -27.90  -23.25  -18.60  -13.95   -9.30   -4.65    0.00    4.65    9.30   13.95   18.60   23.25   27.90   32.55   37.20   41.85   46.50   51.15   55.80   60.45   65.10   69.75   74.40   79.05

   Height   Standard deviation at grid points for the u component:
   168.40    0.254   0.269   0.257   0.230   0.228   0.232   0.258   0.257   0.255   0.257   0.259   0.248   0.249   0.247   0.242   0.241   0.249   0.245   0.245   0.238   0.238   0.254   0.250   0.244   0.230   0.239   0.238   0.221   0.213   0.220   0.205   0.214   0.213   0.218   0.219
   163.75    0.253   0.257   0.252   0.248   0.240   0.248   0.242   0.251   0.255   0.257   0.261   0.245   0.234   0.253   0.253   0.243   0.243   0.245   0.252   0.247   0.245   0.255   0.256   0.244   0.243   0.254   0.247   0.226   0.218   0.210   0.222   0.218   0.222   0.225   0.218
   159.10    0.245   0.252   0.238   0.242   0.247   0.255   0.254   0.250   0.263   0.265   0.264   0.265   0.253   0.240   0.255   0.264   0.250   0.245   0.259   0.254   0.257   0.236   0.248   0.252   0.265   0.252   0.256   0.250   0.232   0.214   0.220   0.216   0.213   0.207   0.222
   154.45    0.249   0.252   0.240   0.249   0.247   0.259   0.258   0.241   0.255   0.266   0.266   0.268   0.269   0.255   0.266   0.248   0.263   0.251   0.258   0.266   0.248   0.245   0.249   0.251   0.258   0.259   0.262   0.255   0.235   0.216   0.221   0.221   0.212   0.205   0.209
   149.80    0.248   0.240   0.249   0.256   0.249   0.256   0.268   0.247   0.254   0.257   0.262   0.258   0.251   0.250   0.256   0.234   0.246   0.253   0.247   0.257   0.235   0.255   0.251   0.247   0.252   0.258   0.262   0.255   0.222   0.216   0.220   0.207   0.215   0.205   0.212
   145.15    0.239   0.234   0.245   0.238   0.260   0.268   0.275   0.267   0.266   0.252   0.263   0.264   0.241   0.244   0.255   0.249   0.233   0.229   0.248   0.250   0.248   0.256   0.261   0.256   0.255   0.259   0.260   0.241   0.236   0.227   0.222   0.218   0.213   0.213   0.219
   140.50    0.244   0.249   0.255   0.253   0.265   0.269   0.266   0.263   0.257   0.250   0.254   0.251   0.249   0.246   0.259   0.244   0.239   0.231   0.254   0.251   0.264   0.267   0.269   0.255   0.241   0.255   0.250   0.251   0.234   0.236   0.236   0.232   0.219   0.217   0.217
   135.85    0.274   0.267   0.275   0.278   0.266   0.258   0.259   0.271   0.267   0.263   0.261   0.262   0.251   0.260   0.264   0.243   0.239   0.247   0.257   0.258   0.262   0.262   0.270   0.271   0.257   0.253   0.254   0.241   0.242   0.243   0.230   0.230   0.227   0.215   0.217
   131.20    0.269   0.270   0.284   0.281   0.263   0.259   0.259   0.272   0.272   0.257   0.272   0.261   0.260   0.250   0.272   0.246   0.244   0.249   0.253   0.254   0.251   0.253   0.253   0.258   0.265   0.256   0.241   0.250   0.232   0.245   0.238   0.233   0.223   0.216   0.223
   126.55    0.270   0.256   0.270   0.278   0.282   0.271   0.269   0.262   0.258   0.267   0.274   0.274   0.282   0.266   0.270   0.244   0.230   0.235   0.249   0.259   0.239   0.253   0.239   0.252   0.263   0.241   0.236   0.232   0.238   0.236   0.238   0.232   0.222   0.226   0.222
   121.90    0.258   0.272   0.268   0.287   0.287   0.292   0.277   0.286   0.279   0.289   0.278   0.291   0.293   0.276   0.252   0.251   0.245   0.235   0.250   0.254   0.244   0.246   0.250   0.251   0.238   0.248   0.240   0.240   0.242   0.242   0.238   0.222   0.226   0.222   0.220
   117.25    0.249   0.261   0.276   0.280   0.276   0.278   0.287   0.301   0.310   0.297   0.302   0.295   0.288   0.275   0.275   0.261   0.258   0.253   0.252   0.260   0.263   0.260   0.262   0.250   0.241   0.240   0.245   0.248   0.244   0.240   0.225   0.229   0.220   0.218   0.234
   112.60    0.245   0.259   0.250   0.271   0.267   0.278   0.272   0.290   0.305   0.297   0.285   0.277   0.275   0.289   0.287   0.268   0.266   0.271   0.248   0.250   0.263   0.258   0.270   0.263   0.257   0.246   0.251   0.236   0.228   0.215   0.216   0.212   0.216   0.223   0.230
   107.95    0.242   0.248   0.253   0.265   0.256   0.281   0.281   0.275   0.283   0.297   0.303   0.282   0.282   0.273   0.280   0.277   0.285   0.264   0.258   0.258   0.258   0.259   0.281   0.268   0.257   0.246   0.233   0.243   0.236   0.222   0.216   0.211   0.214   0.236   0.227
   103.30    0.254   0.258   0.252   0.263   0.260   0.274   0.286   0.287   0.298   0.282   0.290   0.285   0.288   0.281   0.282   0.278   0.276   0.270   0.262   0.261   0.257   0.262   0.257   0.270   0.259   0.245   0.242   0.238   0.225   0.219   0.212   0.218   0.232   0.237   0.237
    98.65    0.277   0.270   0.263   0.259   0.262   0.264   0.278   0.283   0.283   0.272   0.278   0.264   0.278   0.284   0.271   0.274   0.287   0.273   0.271   0.254   0.242   0.252   0.253   0.271   0.269   0.271   0.256   0.242   0.226   0.218   0.233   0.218   0.233   0.228   0.229
    94.00    0.261   0.265   0.274   0.256   0.274   0.266   0.269   0.277   0.274   0.276   0.277   0.255   0.253   0.271   0.286   0.282   0.283   0.271   0.253   0.247   0.253   0.260   0.265   0.251   0.271   0.265   0.253   0.250   0.226   0.224   0.231   0.246   0.238   0.233   0.224
    89.35    0.248   0.257   0.253   0.251   0.264   0.257   0.273   0.264   0.250   0.269   0.273   0.274   0.258   0.259   0.282   0.284   0.290   0.254   0.254   0.253   0.251   0.262   0.255   0.257   0.250   0.257   0.262   0.255   0.249   0.229   0.225   0.245   0.245   0.230   0.243
    84.70    0.256   0.265   0.262   0.261   0.263   0.260   0.265   0.261   0.268   0.259   0.266   0.264   0.247   0.273   0.279   0.275   0.274   0.250   0.250   0.260   0.242   0.255   0.255   0.252   0.247   0.261   0.248   0.257   0.262   0.246   0.243   0.245   0.241   0.236   0.226
    80.05    0.252   0.273   0.257   0.264   0.260   0.266   0.257   0.255   0.262   0.269   0.258   0.266   0.251   0.263   0.254   0.259   0.257   0.246   0.254   0.255   0.244   0.249   0.249   0.243   0.239   0.244   0.248   0.269   0.262   0.253   0.245   0.240   0.241   0.236   0.243
    75.40    0.266   0.267   0.260   0.254   0.245   0.254   0.257   0.252   0.262   0.266   0.257   0.255   0.259   0.272   0.261   0.264   0.255   0.254   0.244   0.257   0.236   0.246   0.246   0.255   0.244   0.235   0.235   0.240   0.243   0.234   0.243   0.230   0.244   0.254   0.256
    70.75    0.246   0.253   0.244   0.240   0.248   0.254   0.259   0.251   0.255   0.250   0.244   0.252   0.253   0.261   0.264   0.258   0.245   0.247   0.241   0.252   0.248   0.244   0.248   0.240   0.244   0.234   0.237   0.248   0.246   0.233   0.240   0.238   0.253   0.251   0.263
    66.10    0.259   0.247   0.254   0.242   0.244   0.247   0.239   0.244   0.237   0.244   0.231   0.246   0.266   0.270   0.257   0.252   0.259   0.249   0.252   0.257   0.258   0.249   0.250   0.236   0.232   0.247   0.236   0.228   0.231   0.235   0.246   0.236   0.246   0.264   0.255
    61.45    0.249   0.253   0.254   0.252   0.240   0.238   0.231   0.230   0.225   0.243   0.248   0.258   0.269   0.265   0.253   0.254   0.259   0.249   0.241   0.240   0.244   0.236   0.230   0.253   0.242   0.255   0.252   0.254   0.247   0.255   0.255   0.247   0.254   0.263   0.262
    56.80    0.258   0.248   0.241   0.238   0.225   0.225   0.233   0.225   0.222   0.234   0.258   0.252   0.263   0.265   0.251   0.262   0.257   0.258   0.243   0.233   0.229   0.221   0.235   0.233   0.240   0.257   0.244   0.242   0.260   0.253   0.249   0.247   0.251   0.249   0.247
    52.15    0.244   0.240   0.247   0.224   0.220   0.227   0.238   0.231   0.225   0.248   0.242   0.258   0.260   0.261   0.262   0.269   0.255   0.251   0.244   0.235   0.235   0.229   0.235   0.239   0.239   0.251   0.248   0.245   0.254   0.256   0.255   0.243   0.255   0.244   0.240
    47.50    0.239   0.235   0.233   0.228   0.233   0.233   0.234   0.235   0.226   0.239   0.244   0.254   0.247   0.266   0.271   0.255   0.254   0.249   0.253   0.241   0.228   0.232   0.244   0.245   0.248   0.250   0.257   0.253   0.258   0.253   0.248   0.256   0.257   0.242   0.236
    42.85    0.246   0.240   0.244   0.232   0.222   0.235   0.233   0.222   0.230   0.234   0.242   0.234   0.243   0.262   0.248   0.261   0.263   0.255   0.250   0.258   0.233   0.245   0.243   0.249   0.258   0.236   0.243   0.247   0.249   0.243   0.238   0.251   0.255   0.237   0.243
    38.20    0.263   0.249   0.232   0.227   0.228   0.237   0.229   0.232   0.235   0.226   0.234   0.239   0.248   0.240   0.250   0.264   0.253   0.252   0.250   0.241   0.228   0.228   0.231   0.240   0.234   0.234   0.232   0.230   0.233   0.234   0.235   0.242   0.243   0.228   0.247
    33.55    0.242   0.245   0.238   0.224   0.221   0.230   0.230   0.234   0.232   0.233   0.239   0.247   0.254   0.252   0.249   0.258   0.246   0.245   0.228   0.233   0.233   0.230   0.226   0.236   0.230   0.222   0.221   0.224   0.225   0.233   0.236   0.234   0.227   0.239   0.238
    28.90    0.255   0.246   0.239   0.241   0.243   0.241   0.250   0.234   0.235   0.239   0.228   0.250   0.233   0.251   0.241   0.261   0.251   0.243   0.234   0.209   0.209   0.217   0.219   0.226   0.229   0.220   0.219   0.220   0.210   0.218   0.232   0.236   0.225   0.227   0.232
    24.25    0.276   0.250   0.240   0.245   0.262   0.254   0.250   0.232   0.240   0.234   0.241   0.244   0.255   0.248   0.248   0.240   0.249   0.254   0.240   0.223   0.221   0.221   0.229   0.227   0.219   0.221   0.212   0.219   0.211   0.224   0.238   0.225   0.226   0.230   0.233
    19.60    0.274   0.263   0.247   0.245   0.252   0.249   0.251   0.244   0.242   0.235   0.244   0.239   0.244   0.253   0.250   0.231   0.228   0.236   0.235   0.226   0.217   0.222   0.231   0.235   0.235   0.226   0.222   0.225   0.223   0.228   0.233   0.238   0.231   0.232   0.229
    14.95    0.261   0.258   0.245   0.234   0.245   0.253   0.262   0.259   0.241   0.231   0.222   0.224   0.238   0.243   0.237   0.233   0.219   0.233   0.231   0.231   0.215   0.213   0.215   0.221   0.242   0.240   0.229   0.230   0.227   0.231   0.237   0.231   0.233   0.239   0.219
    10.30    0.264   0.247   0.254   0.250   0.257   0.253   0.257   0.257   0.250   0.223   0.227   0.229   0.241   0.238   0.237   0.239   0.217   0.231   0.227   0.226   0.230   0.217   0.213   0.226   0.242   0.258   0.242   0.231   0.229   0.236   0.229   0.226   0.232   0.228   0.224
     5.65    0.260   0.268   0.249   0.245   0.247   0.253   0.257   0.256   0.257   0.245   0.237   0.233   0.223   0.235   0.224   0.219   0.219   0.221   0.231   0.240   0.234   0.229   0.221   0.227   0.233   0.233   0.244   0.224   0.226   0.232   0.232   0.217   0.229   0.211   0.217
     1.00    0.253   0.254   0.249   0.260   0.249   0.252   0.251   0.260   0.262   0.255   0.253   0.232   0.214   0.226   0.229   0.221   0.227   0.222   0.227   0.237   0.252   0.237   0.220   0.226   0.224   0.224   0.223   0.236   0.225   0.227   0.227   0.225   0.223   0.212   0.204

   Height   Standard deviation at grid points for the v component:
   168.40    0.211   0.221   0.222   0.215   0.214   0.199   0.208   0.212   0.210   0.221   0.217   0.232   0.243   0.231   0.236   0.239   0.222   0.225   0.226   0.209   0.227   0.222   0.204   0.215   0.213   0.214   0.206   0.203   0.208   0.215   0.206   0.210   0.210   0.214   0.218
   163.75    0.211   0.217   0.221   0.221   0.217   0.212   0.202   0.210   0.218   0.220   0.216   0.213   0.220   0.241   0.239   0.227   0.208   0.211   0.220   0.216   0.220   0.234   0.209   0.209   0.208   0.211   0.207   0.203   0.217   0.214   0.207   0.208   0.203   0.210   0.215
   159.10    0.206   0.217   0.219   0.225   0.218   0.203   0.214   0.221   0.220   0.225   0.220   0.211   0.225   0.232   0.231   0.222   0.222   0.205   0.208   0.209   0.210   0.216   0.209   0.199   0.207   0.206   0.206   0.212   0.219   0.214   0.214   0.199   0.205   0.210   0.215
   154.45    0.207   0.222   0.212   0.213   0.218   0.208   0.209   0.216   0.212   0.212   0.220   0.214   0.218   0.221   0.224   0.217   0.210   0.207   0.200   0.210   0.213   0.210   0.206   0.206   0.203   0.207   0.207   0.218   0.213   0.210   0.202   0.201   0.211   0.218   0.214
   149.80    0.224   0.218   0.222   0.226   0.212   0.212   0.212   0.218   0.209   0.220   0.226   0.220   0.208   0.212   0.223   0.222   0.210   0.210   0.201   0.210   0.210   0.193   0.202   0.206   0.204   0.200   0.199   0.213   0.221   0.205   0.208   0.203   0.209   0.225   0.226
   145.15    0.230   0.217   0.217   0.215   0.208   0.220   0.217   0.210   0.201   0.218   0.218   0.216   0.210   0.221   0.220   0.217   0.216   0.211   0.207   0.215   0.211   0.204   0.214   0.206   0.203   0.201   0.198   0.209   0.210   0.207   0.204   0.212   0.212   0.213   0.210
   140.50    0.235   0.218   0.216   0.214   0.214   0.218   0.220   0.210   0.206   0.214   0.207   0.218   0.208   0.222   0.227   0.235   0.227   0.230   0.218   0.213   0.206   0.216   0.221   0.223   0.224   0.213   0.213   0.222   0.214   0.205   0.203   0.214   0.218   0.218   0.213
   135.85    0.224   0.233   0.219   0.221   0.224   0.222   0.220   0.214   0.204   0.202   0.203   0.203   0.206   0.221   0.226   0.225   0.229   0.236   0.218   0.216   0.219   0.222   0.232   0.222   0.226   0.223   0.209   0.216   0.220   0.219   0.217   0.215   0.212   0.229   0.217
   131.20    0.230   0.230   0.226   0.223   0.216   0.210   0.214   0.204   0.202   0.206   0.205   0.205   0.210   0.210   0.233   0.220   0.231   0.242   0.228   0.223   0.224   0.223   0.229   0.238   0.222   0.220   0.208   0.213   0.224   0.224   0.216   0.214   0.212   0.219   0.228
   126.55    0.226   0.229   0.225   0.219   0.204   0.196   0.209   0.202   0.191   0.192   0.206   0.211   0.196   0.206   0.223   0.220   0.226   0.232   0.233   0.221   0.225   0.228   0.237   0.234   0.231   0.219   0.212   0.220   0.222   0.225   0.223   0.224   0.211   0.209   0.221
   121.90    0.223   0.225   0.227   0.210   0.194   0.204   0.207   0.193   0.195   0.204   0.203   0.218   0.215   0.214   0.227   0.214   0.216   0.222   0.226   0.229   0.237   0.236   0.244   0.232   0.229   0.210   0.207   0.212   0.220   0.212   0.221   0.224   0.215   0.218   0.221
   117.25    0.222   0.227   0.219   0.204   0.206   0.213   0.204   0.200   0.204   0.221   0.215   0.208   0.219   0.218   0.228   0.232   0.221   0.213   0.223   0.230   0.240   0.241   0.244   0.240   0.230   0.220   0.211   0.212   0.216   0.234   0.238   0.225   0.225   0.221   0.218
   112.60    0.229   0.229   0.215   0.206   0.217   0.214   0.219   0.217   0.218   0.226   0.217   0.209   0.231   0.236   0.237   0.249   0.233   0.227   0.223   0.225   0.220   0.223   0.228   0.239   0.234   0.222   0.213   0.224   0.231   0.239   0.238   0.234   0.219   0.221   0.232
   107.95    0.219   0.226   0.228   0.230   0.227   0.229   0.225   0.222   0.227   0.236   0.227   0.240   0.234   0.237   0.242   0.251   0.239   0.233   0.229   0.217   0.230   0.242   0.225   0.236   0.228   0.218   0.223   0.224   0.236   0.242   0.239   0.225   0.227   0.229   0.226
   103.30    0.234   0.233   0.230   0.239   0.238   0.233   0.245   0.235   0.227   0.229   0.234   0.241   0.229   0.251   0.239   0.251   0.243   0.240   0.230   0.213   0.221   0.225   0.223   0.234   0.233   0.219   0.219   0.224   0.235   0.249   0.231   0.238   0.231   0.229   0.215
    98.65    0.234   0.244   0.246   0.235   0.238   0.243   0.245   0.248   0.244   0.244   0.249   0.250   0.249   0.234   0.242   0.254   0.230   0.226   0.241   0.236   0.233   0.240   0.233   0.240   0.227   0.228   0.230   0.234   0.241   0.237   0.236   0.240   0.238   0.224   0.221
    94.00    0.253   0.250   0.239   0.240   0.234   0.250   0.246   0.244   0.245   0.250   0.250   0.247   0.241   0.241   0.236   0.230   0.233   0.221   0.220   0.228   0.232   0.244   0.232   0.231   0.235   0.241   0.243   0.228   0.226   0.237   0.239   0.233   0.234   0.221   0.221
    89.35    0.261   0.253   0.241   0.240   0.240   0.239   0.239   0.244   0.243   0.249   0.242   0.245   0.247   0.248   0.236   0.225   0.223   0.215   0.221   0.227   0.224   0.230   0.227   0.226   0.236   0.238   0.233   0.229   0.230   0.227   0.229   0.227   0.233   0.231   0.226
    84.70    0.260   0.259   0.252   0.238   0.223   0.236   0.248   0.245   0.248   0.248   0.237   0.235   0.241   0.241   0.240   0.229   0.224   0.230   0.236   0.234   0.226   0.217   0.215   0.222   0.222   0.239   0.229   0.227   0.234   0.230   0.229   0.227   0.227   0.228   0.223
    80.05    0.255   0.244   0.240   0.238   0.230   0.223   0.234   0.228   0.238   0.242   0.251   0.237   0.243   0.250   0.235   0.235   0.223   0.237   0.229   0.228   0.217   0.215   0.220   0.219   0.225   0.238   0.249   0.237   0.246   0.251   0.232   0.236   0.224   0.225   0.230
    75.40    0.247   0.234   0.235   0.239   0.238   0.240   0.229   0.240   0.235   0.241   0.238   0.250   0.253   0.251   0.237   0.238   0.232   0.227   0.221   0.220   0.220   0.221   0.223   0.220   0.221   0.240   0.253   0.261   0.255   0.261   0.259   0.249   0.231   0.226   0.217
    70.75    0.255   0.249   0.243   0.242   0.242   0.239   0.238   0.236   0.238   0.248   0.248   0.254   0.251   0.241   0.241   0.219   0.228   0.218   0.229   0.221   0.230   0.230   0.237   0.233   0.240   0.250   0.245   0.255   0.263   0.264   0.251   0.243   0.234   0.230   0.227
    66.10    0.244   0.253   0.254   0.259   0.260   0.259   0.240   0.241   0.242   0.245   0.240   0.245   0.237   0.244   0.234   0.232   0.237   0.222   0.224   0.228   0.234   0.223   0.235   0.245   0.242   0.241   0.247   0.250   0.252   0.242   0.242   0.230   0.242   0.227   0.249
    61.45    0.233   0.243   0.250   0.264   0.262   0.262   0.256   0.237   0.238   0.251   0.252   0.255   0.247   0.255   0.246   0.243   0.243   0.234   0.227   0.229   0.231   0.225   0.227   0.242   0.246   0.232   0.233   0.243   0.238   0.247   0.233   0.228   0.234   0.235   0.245
    56.80    0.242   0.240   0.254   0.259   0.254   0.247   0.241   0.233   0.242   0.252   0.261   0.269   0.258   0.263   0.263   0.250   0.247   0.234   0.229   0.244   0.241   0.235   0.235   0.236   0.238   0.238   0.235   0.247   0.237   0.247   0.238   0.241   0.231   0.240   0.240
    52.15    0.253   0.245   0.246   0.253   0.255   0.245   0.235   0.235   0.240   0.251   0.258   0.270   0.259   0.260   0.260   0.269   0.254   0.238   0.235   0.240   0.235   0.224   0.232   0.237   0.243   0.253   0.245   0.241   0.244   0.260   0.250   0.238   0.241   0.244   0.243
    47.50    0.260   0.250   0.256   0.249   0.253   0.244   0.240   0.259   0.258   0.241   0.252   0.255   0.244   0.261   0.256   0.268   0.258   0.244   0.237   0.238   0.249   0.231   0.245   0.238   0.245   0.246   0.245   0.240   0.243   0.242   0.246   0.245   0.235   0.231   0.244
    42.85    0.264   0.244   0.255   0.254   0.246   0.246   0.251   0.259   0.256   0.248   0.254   0.248   0.248   0.253   0.265   0.255   0.252   0.242   0.249   0.243   0.247   0.240   0.240   0.246   0.247   0.254   0.238   0.242   0.241   0.247   0.250   0.236   0.223   0.232   0.242
    38.20    0.256   0.259   0.255   0.260   0.251   0.247   0.257   0.257   0.260   0.261   0.260   0.253   0.253   0.253   0.252   0.252   0.249   0.246   0.249   0.250   0.250   0.243   0.247   0.249   0.242   0.246   0.233   0.238   0.228   0.239   0.245   0.242   0.232   0.244   0.235
    33.55    0.265   0.262   0.250   0.240   0.245   0.252   0.254   0.252   0.244   0.253   0.246   0.258   0.243   0.261   0.250   0.255   0.247   0.247   0.243   0.255   0.245   0.247   0.248   0.245   0.244   0.242   0.252   0.242   0.237   0.242   0.239   0.244   0.240   0.226   0.222
    28.90    0.252   0.250   0.250   0.247   0.247   0.248   0.258   0.246   0.251   0.242   0.246   0.247   0.255   0.254   0.248   0.245   0.260   0.257   0.257   0.264   0.250   0.246   0.240   0.253   0.248   0.252   0.247   0.242   0.238   0.244   0.242   0.245   0.240   0.244   0.246
    24.25    0.239   0.247   0.252   0.254   0.265   0.249   0.249   0.252   0.246   0.249   0.246   0.251   0.240   0.241   0.247   0.250   0.255   0.266   0.274   0.263   0.254   0.232   0.247   0.260   0.250   0.242   0.239   0.241   0.250   0.265   0.254   0.250   0.246   0.249   0.250
    19.60    0.251   0.249   0.249   0.259   0.252   0.251   0.240   0.253   0.244   0.242   0.230   0.232   0.235   0.235   0.242   0.263   0.259   0.262   0.274   0.255   0.243   0.236   0.244   0.249   0.249   0.239   0.234   0.240   0.254   0.269   0.254   0.246   0.246   0.247   0.252
    14.95    0.243   0.243   0.254   0.254   0.234   0.243   0.258   0.246   0.244   0.239   0.241   0.235   0.251   0.245   0.247   0.250   0.261   0.254   0.267   0.256   0.245   0.243   0.248   0.251   0.255   0.237   0.232   0.237   0.240   0.241   0.234   0.246   0.237   0.253   0.262
    10.30    0.247   0.234   0.246   0.238   0.239   0.247   0.247   0.254   0.236   0.226   0.237   0.236   0.237   0.239   0.235   0.241   0.244   0.248   0.260   0.257   0.263   0.256   0.249   0.250   0.243   0.230   0.226   0.228   0.230   0.235   0.229   0.241   0.245   0.250   0.252
     5.65    0.247   0.233   0.238   0.239   0.244   0.241   0.240   0.237   0.235   0.230   0.237   0.239   0.241   0.228   0.229   0.241   0.234   0.252   0.255   0.258   0.270   0.267   0.265   0.262   0.244   0.242   0.237   0.253   0.241   0.221   0.236   0.249   0.242   0.261   0.249
     1.00    0.234   0.234   0.235   0.242   0.239   0.241   0.244   0.237   0.234   0.220   0.225   0.226   0.215   0.228   0.224   0.234   0.242   0.255   0.264   0.259   0.264   0.269   0.266   0.257   0.258   0.245   0.252   0.263   0.243   0.232   0.233   0.240   0.245   0.247   0.249

   Height   Standard deviation at grid points for the w component:
   168.40    0.147   0.151   0.155   0.150   0.147   0.147   0.147   0.145   0.139   0.146   0.148   0.146   0.148   0.149   0.148   0.150   0.153   0.150   0.148   0.142   0.148   0.144   0.145   0.143   0.155   0.148   0.149   0.149   0.142   0.146   0.145   0.149   0.155   0.156   0.157
   163.75    0.151   0.152   0.154   0.154   0.146   0.149   0.149   0.147   0.140   0.143   0.150   0.149   0.146   0.148   0.148   0.153   0.152   0.152   0.151   0.146   0.147   0.146   0.149   0.149   0.145   0.148   0.150   0.148   0.150   0.149   0.146   0.144   0.146   0.152   0.150
   159.10    0.152   0.146   0.151   0.149   0.143   0.148   0.154   0.150   0.149   0.147   0.152   0.149   0.151   0.149   0.148   0.149   0.151   0.148   0.152   0.148   0.144   0.146   0.147   0.151   0.149   0.151   0.149   0.146   0.149   0.150   0.146   0.147   0.146   0.147   0.140
   154.45    0.154   0.154   0.156   0.158   0.150   0.150   0.151   0.146   0.148   0.144   0.151   0.152   0.154   0.148   0.141   0.145   0.154   0.148   0.148   0.146   0.149   0.151   0.150   0.151   0.146   0.147   0.148   0.144   0.149   0.145   0.150   0.154   0.142   0.144   0.142
   149.80    0.157   0.156   0.153   0.157   0.158   0.154   0.152   0.145   0.145   0.146   0.148   0.148   0.150   0.144   0.146   0.146   0.149   0.149   0.150   0.146   0.151   0.149   0.153   0.152   0.148   0.146   0.148   0.151   0.147   0.151   0.152   0.153   0.146   0.146   0.145
   145.15    0.159   0.157   0.156   0.154   0.154   0.155   0.154   0.146   0.142   0.148   0.146   0.148   0.148   0.144   0.148   0.148   0.151   0.148   0.152   0.151   0.157   0.154   0.154   0.155   0.154   0.146   0.150   0.145   0.146   0.151   0.153   0.148   0.150   0.152   0.149
   140.50    0.157   0.157   0.156   0.153   0.157   0.157   0.155   0.146   0.148   0.150   0.151   0.150   0.150   0.143   0.141   0.145   0.145   0.149   0.151   0.149   0.158   0.153   0.152   0.154   0.152   0.151   0.146   0.146   0.142   0.151   0.156   0.153   0.152   0.150   0.150
   135.85    0.154   0.155   0.153   0.155   0.157   0.159   0.154   0.151   0.148   0.148   0.152   0.149   0.149   0.148   0.142   0.141   0.146   0.147   0.148   0.149   0.153   0.149   0.151   0.150   0.153   0.153   0.148   0.147   0.149   0.152   0.155   0.149   0.149   0.151   0.148
   131.20    0.157   0.158   0.157   0.155   0.157   0.157   0.154   0.154   0.148   0.147   0.146   0.144   0.146   0.143   0.140   0.141   0.146   0.151   0.148   0.154   0.155   0.151   0.149   0.151   0.145   0.146   0.148   0.142   0.151   0.148   0.152   0.149   0.151   0.152   0.145
   126.55    0.164   0.155   0.159   0.160   0.159   0.165   0.162   0.161   0.158   0.156   0.153   0.148   0.147   0.144   0.138   0.144   0.150   0.148   0.155   0.155   0.158   0.157   0.153   0.145   0.148   0.147   0.147   0.148   0.146   0.150   0.147   0.142   0.145   0.151   0.149
   121.90    0.156   0.155   0.153   0.157   0.163   0.168   0.168   0.166   0.162   0.157   0.158   0.152   0.147   0.145   0.138   0.143   0.149   0.148   0.151   0.157   0.157   0.155   0.150   0.145   0.144   0.147   0.150   0.146   0.150   0.153   0.151   0.146   0.150   0.151   0.144
   117.25    0.153   0.150   0.154   0.151   0.153   0.163   0.164   0.168   0.165   0.159   0.157   0.154   0.151   0.151   0.139   0.141   0.149   0.150   0.152   0.153   0.151   0.151   0.152   0.146   0.149   0.147   0.144   0.148   0.148   0.156   0.149   0.147   0.151   0.148   0.143
   112.60    0.158   0.155   0.154   0.154   0.152   0.160   0.163   0.168   0.157   0.155   0.153   0.155   0.153   0.152   0.146   0.147   0.153   0.162   0.153   0.150   0.145   0.147   0.148   0.147   0.145   0.142   0.142   0.142   0.148   0.159   0.150   0.154   0.145   0.148   0.149
   107.95    0.156   0.162   0.160   0.154   0.150   0.154   0.160   0.162   0.158   0.159   0.155   0.155   0.148   0.147   0.150   0.149   0.153   0.151   0.147   0.148   0.140   0.146   0.148   0.148   0.145   0.145   0.146   0.146   0.149   0.149   0.150   0.146   0.144   0.143   0.143
   103.30    0.154   0.153   0.156   0.152   0.152   0.149   0.152   0.153   0.151   0.150   0.153   0.152   0.144   0.142   0.143   0.150   0.152   0.154   0.144   0.148   0.142   0.143   0.144   0.145   0.141   0.145   0.148   0.150   0.151   0.147   0.147   0.141   0.143   0.141   0.142
    98.65    0.149   0.150   0.148   0.149   0.150   0.150   0.151   0.151   0.152   0.143   0.143   0.144   0.148   0.143   0.143   0.150   0.152   0.146   0.144   0.140   0.142   0.144   0.146   0.148   0.147   0.143   0.144   0.145   0.152   0.146   0.148   0.146   0.142   0.143   0.142
    94.00    0.150   0.146   0.145   0.144   0.149   0.141   0.148   0.144   0.146   0.148   0.144   0.141   0.146   0.144   0.144   0.148   0.152   0.145   0.147   0.146   0.147   0.149   0.146   0.149   0.148   0.152   0.140   0.137   0.145   0.144   0.140   0.138   0.137   0.141   0.145
    89.35    0.153   0.148   0.144   0.148   0.145   0.142   0.146   0.151   0.149   0.142   0.145   0.141   0.139   0.135   0.141   0.143   0.143   0.142   0.144   0.148   0.145   0.150   0.146   0.145   0.152   0.147   0.144   0.138   0.144   0.142   0.142   0.144   0.142   0.140   0.139
    84.70    0.151   0.145   0.143   0.143   0.145   0.139   0.149   0.148   0.150   0.144   0.141   0.140   0.139   0.141   0.141   0.144   0.144   0.145   0.144   0.143   0.146   0.147   0.145   0.145   0.149   0.149   0.148   0.141   0.144   0.141   0.144   0.143   0.143   0.140   0.137
    80.05    0.147   0.151   0.144   0.146   0.144   0.145   0.143   0.149   0.141   0.137   0.137   0.138   0.138   0.142   0.144   0.141   0.143   0.142   0.144   0.147   0.143   0.147   0.144   0.144   0.146   0.146   0.145   0.142   0.141   0.143   0.138   0.137   0.141   0.139   0.138
    75.40    0.145   0.144   0.142   0.141   0.141   0.141   0.141   0.137   0.137   0.139   0.138   0.143   0.140   0.139   0.145   0.143   0.141   0.142   0.148   0.146   0.144   0.146   0.148   0.152   0.148   0.148   0.149   0.150   0.150   0.144   0.142   0.146   0.141   0.141   0.144
    70.75    0.136   0.139   0.135   0.138   0.137   0.138   0.138   0.141   0.136   0.139   0.130   0.135   0.139   0.140   0.141   0.142   0.138   0.138   0.146   0.148   0.145   0.144   0.144   0.148   0.151   0.151   0.151   0.146   0.148   0.149   0.140   0.145   0.142   0.140   0.141
    66.10    0.139   0.135   0.131   0.140   0.139   0.135   0.139   0.138   0.137   0.136   0.138   0.136   0.136   0.135   0.137   0.139   0.139   0.142   0.146   0.146   0.147   0.146   0.146   0.148   0.149   0.148   0.147   0.144   0.145   0.142   0.145   0.149   0.145   0.144   0.149
    61.45    0.139   0.137   0.137   0.136   0.134   0.134   0.143   0.141   0.144   0.144   0.137   0.142   0.135   0.134   0.140   0.139   0.144   0.146   0.144   0.144   0.141   0.142   0.141   0.142   0.143   0.140   0.146   0.142   0.146   0.141   0.144   0.145   0.146   0.147   0.149
    56.80    0.140   0.137   0.137   0.138   0.138   0.136   0.139   0.144   0.149   0.142   0.141   0.141   0.135   0.132   0.140   0.144   0.140   0.147   0.147   0.148   0.140   0.143   0.138   0.134   0.140   0.136   0.143   0.144   0.149   0.146   0.145   0.145   0.152   0.148   0.146
    52.15    0.140   0.147   0.142   0.139   0.137   0.142   0.141   0.145   0.146   0.146   0.141   0.139   0.138   0.135   0.138   0.148   0.147   0.144   0.145   0.144   0.140   0.142   0.140   0.137   0.140   0.145   0.149   0.151   0.150   0.147   0.156   0.154   0.150   0.152   0.150
    47.50    0.147   0.154   0.147   0.144   0.141   0.138   0.136   0.143   0.141   0.150   0.145   0.139   0.141   0.140   0.142   0.149   0.146   0.145   0.146   0.142   0.140   0.144   0.142   0.147   0.147   0.147   0.147   0.144   0.151   0.152   0.154   0.154   0.155   0.156   0.158
    42.85    0.149   0.148   0.150   0.144   0.145   0.136   0.139   0.141   0.143   0.143   0.144   0.138   0.141   0.140   0.145   0.148   0.141   0.145   0.142   0.148   0.144   0.145   0.144   0.145   0.144   0.150   0.151   0.144   0.150   0.152   0.149   0.154   0.154   0.149   0.151
    38.20    0.147   0.145   0.147   0.139   0.143   0.144   0.138   0.138   0.134   0.141   0.140   0.137   0.140   0.140   0.143   0.148   0.142   0.145   0.139   0.147   0.148   0.146   0.146   0.141   0.145   0.148   0.149   0.144   0.156   0.154   0.155   0.146   0.152   0.152   0.150
    33.55    0.149   0.142   0.139   0.143   0.138   0.143   0.139   0.136   0.129   0.133   0.134   0.134   0.136   0.139   0.149   0.151   0.144   0.145   0.142   0.142   0.144   0.142   0.147   0.141   0.142   0.148   0.149   0.148   0.148   0.150   0.144   0.147   0.152   0.147   0.150
    28.90    0.151   0.144   0.144   0.143   0.141   0.144   0.139   0.135   0.130   0.130   0.136   0.137   0.141   0.140   0.146   0.148   0.143   0.149   0.141   0.144   0.139   0.139   0.137   0.139   0.143   0.143   0.147   0.142   0.144   0.150   0.151   0.152   0.145   0.149   0.157
    24.25    0.151   0.148   0.145   0.140   0.142   0.143   0.144   0.133   0.132   0.133   0.135   0.139   0.143   0.141   0.140   0.137   0.147   0.145   0.140   0.141   0.144   0.139   0.136   0.129   0.141   0.143   0.144   0.141   0.141   0.147   0.154   0.147   0.148   0.150   0.155
    19.60    0.147   0.145   0.146   0.145   0.147   0.148   0.143   0.135   0.137   0.135   0.136   0.145   0.144   0.140   0.136   0.134   0.138   0.142   0.141   0.137   0.135   0.136   0.135   0.131   0.142   0.140   0.139   0.141   0.139   0.142   0.148   0.148   0.148   0.151   0.150
    14.95    0.149   0.141   0.148   0.144   0.144   0.142   0.144   0.139   0.137   0.139   0.140   0.142   0.145   0.139   0.138   0.135   0.138   0.141   0.136   0.134   0.137   0.137   0.137   0.139   0.136   0.133   0.138   0.141   0.140   0.142   0.148   0.149   0.149   0.149   0.154
    10.30    0.150   0.145   0.142   0.145   0.145   0.140   0.141   0.143   0.142   0.144   0.147   0.147   0.148   0.146   0.142   0.140   0.135   0.140   0.141   0.135   0.138   0.135   0.141   0.141   0.138   0.138   0.142   0.139   0.141   0.147   0.148   0.152   0.149   0.147   0.147
     5.65    0.142   0.139   0.137   0.135   0.138   0.140   0.138   0.145   0.146   0.147   0.145   0.147   0.150   0.151   0.147   0.143   0.136   0.139   0.139   0.137   0.136   0.140   0.136   0.137   0.138   0.137   0.137   0.140   0.137   0.145   0.144   0.148   0.143   0.147   0.145
     1.00    0.143   0.137   0.132   0.135   0.138   0.140   0.135   0.141   0.149   0.145   0.150   0.152   0.150   0.154   0.152   0.142   0.137   0.139   0.139   0.138   0.143   0.139   0.141   0.134   0.137   0.144   0.141   0.144   0.142   0.140   0.141   0.149   0.145   0.146   0.142

   Mean standard deviation across all grid points:
      u component:    0.247 m/s
      v component:    0.233 m/s
      w component:    0.146 m/s


U-component (X) statistics from the interpolated hub point:

   Mean =   9.9913 m/s
   TI   =   2.5459 %


Processing complete.  6080.8 CPU seconds used.
