
This summary file was generated by TurbSim (from OpenFAST-v3.5.3) on 20-Apr-2025 at 03:03:41.


Runtime Options:

1682697194  Random seed #1
    RANLUX  Type of random number generator
         F  Output binary HH turbulence parameters?
         F  Output formatted turbulence parameters?
         F  Output AeroDyn HH files?
         T  Output AeroDyn FF files?
         F  Output BLADED FF files?
         F  Output tower data?
         F  Output HAWC FF files?
         F  Output formatted FF files?
         T  Output coherent turbulence time step file?
 0 -  NONE  IEC turbulence models scaled to exact specified standard deviation


Turbine/Model Specifications:

        37  Vertical grid-point matrix dimension
        35  Horizontal grid-point matrix dimension
     0.250  Time step [seconds]
   900.000  Analysis time [seconds]
   900.000  Usable output time [seconds]
    89.350  Hub height [m]
   167.400  Grid height [m]
   158.100  Grid width [m]
     0.000  Vertical flow angle [degrees]
     0.000  Horizontal flow angle [degrees]


Meteorological Boundary Conditions:

    TIMESR  User-input time series spectral model
       N/A  IEC standard
       N/A  IEC turbulence characteristic
       N/A  IEC turbulence type
       N/A  IEC Extreme Turbulence Model (ETM) "c" parameter [m/s]
       PL   Wind profile type
    90.000  Reference height [m]
    10.000  Reference wind speed [m/s]
       N/A  Jet height [m]
     0.120  Power law exponent
     0.030  Surface roughness length [m]


Non-IEC Meteorological Boundary Conditions:

    45.000  Site latitude [degrees]
     0.050  Gradient Richardson number
     0.480  Friction or shear velocity [m/s]
       N/A  Mixing layer depth [m]
       N/A  Mean hub u'w' Reynolds stress
       N/A  Mean hub u'v' Reynolds stress
       N/A  Mean hub v'w' Reynolds stress


Spatial Coherence Models:

       IEC  u-component coherence model
       IEC  v-component coherence model
       IEC  w-component coherence model
(   12.000, 0.353E-03)  u-component coherence parameters
(   12.000, 0.353E-03)  v-component coherence parameters
(   12.000, 0.353E-03)  w-component coherence parameters
       N/A  Coherence exponent


Coherent Turbulence Scaling Parameters:

.\EventData
            Name of the path containing the coherent turbulence data files
       les  Type of coherent turbulence data files
     0.500  Disturbance scale (ratio of wave height to rotor diameter)
     0.500  Fractional location of tower centerline from right
     0.000  Fractional location of hub height from the bottom of the dataset
    30.000  Minimum start time for coherent structures [seconds]


Profiles from User-Defined Time-Series Input:

  Height   Wind Speed   Horizontal Angle   Vertical Angle
   (m)        (m/s)          (deg)              (deg)    
  ------   ----------   ----------------   --------------
   94.00      10.00          -0.63                0.00


You have requested that the following file(s) be generated:

   /kfs3/scratch/agupta/Projects/RL_Incubator/FinalRuns_Veer/Seed4/./FFSim_Seed4/Cond00_v10.0_PL0.12_TI5.0/Case0_wdirp00/Seed_5/TurbSim/HighT8.bts (AeroDyn/TurbSim full-field wind file)


Turbulence Simulation Scaling Parameter Summary:

   Turbulence model used                            =  User-input time series
   Gradient Richardson number                       =    0.050
   Monin-Obukhov (M-O) z/L parameter                =    0.067
   Monin-Obukhov (M-O) length scale                 = 1340.250 m
   Mean wind speed at hub height                    =    9.991 m/s

   Wind profile type                                =  Power law
   Power law exponent                               =    0.120
   Mean shear across rotor disk                     =    0.019 (m/s)/m
   Assumed rotor diameter                           =  158.100 m
   Surface roughness length                         =    0.030 m

   Nyquist frequency of turbulent wind field        =    2.000 Hz

   Number of time steps in the FFT                  =     3600
   Number of time steps output                      =     3600
   Number of points simulated                       =     1296


Mean Flow Angles:

   Vertical   =   0.0 degrees
   Horizontal =   0.0 degrees

Mean Wind Speed Profile:

   Height    Wind Speed   Horizontal Angle  Vertical Angle  U-comp (X)   V-comp (Y)   W-comp (Z)
     (m)        (m/s)         (degrees)       (degrees)       (m/s)        (m/s)        (m/s)   
   ------    ----------   ----------------  --------------  ----------   ----------   ----------
    168.4       10.78            0.00            0.00         10.78         0.00         0.00
    163.7       10.74            0.00            0.00         10.74         0.00         0.00
    159.1       10.71            0.00            0.00         10.71         0.00         0.00
    154.4       10.67            0.00            0.00         10.67         0.00         0.00
    149.8       10.63            0.00            0.00         10.63         0.00         0.00
    145.1       10.59            0.00            0.00         10.59         0.00         0.00
    140.5       10.55            0.00            0.00         10.55         0.00         0.00
    135.8       10.51            0.00            0.00         10.51         0.00         0.00
    131.2       10.46            0.00            0.00         10.46         0.00         0.00
    126.5       10.42            0.00            0.00         10.42         0.00         0.00
    121.9       10.37            0.00            0.00         10.37         0.00         0.00
    117.2       10.32            0.00            0.00         10.32         0.00         0.00
    112.6       10.27            0.00            0.00         10.27         0.00         0.00
    107.9       10.22            0.00            0.00         10.22         0.00         0.00
    103.3       10.17            0.00            0.00         10.17         0.00         0.00
     98.6       10.11            0.00            0.00         10.11         0.00         0.00
     94.0       10.05            0.00            0.00         10.05         0.00         0.00
     89.3        9.99            0.00            0.00          9.99         0.00         0.00
     84.7        9.93            0.00            0.00          9.93         0.00         0.00
     80.0        9.86            0.00            0.00          9.86         0.00         0.00
     75.4        9.79            0.00            0.00          9.79         0.00         0.00
     70.7        9.72            0.00            0.00          9.72         0.00         0.00
     66.1        9.64            0.00            0.00          9.64         0.00         0.00
     61.4        9.55            0.00            0.00          9.55         0.00         0.00
     56.8        9.46            0.00            0.00          9.46         0.00         0.00
     52.1        9.37            0.00            0.00          9.37         0.00         0.00
     47.5        9.26            0.00            0.00          9.26         0.00         0.00
     42.8        9.15            0.00            0.00          9.15         0.00         0.00
     38.2        9.02            0.00            0.00          9.02         0.00         0.00
     33.5        8.88            0.00            0.00          8.88         0.00         0.00
     28.9        8.73            0.00            0.00          8.73         0.00         0.00
     24.2        8.54            0.00            0.00          8.54         0.00         0.00
     19.6        8.33            0.00            0.00          8.33         0.00         0.00
     14.9        8.06            0.00            0.00          8.06         0.00         0.00
     10.3        7.71            0.00            0.00          7.71         0.00         0.00
      5.6        7.17            0.00            0.00          7.17         0.00         0.00
      1.0        5.83            0.00            0.00          5.83         0.00         0.00


Harvested Random Seeds after Generation of the Random Numbers:

     65026800 K 1
            0 K 2


Hub-Height Simulated Turbulence Statistical Summary:

   Type of Wind        Min (m/s)   Mean (m/s)    Max (m/s)  Sigma (m/s)       TI (%)
   ----------------    ---------   ----------    ---------  -----------       ------
   Longitudinal (u)         8.45         9.99        11.73        0.519        5.195
   Lateral (v)             -1.21        -0.00         1.31        0.400        4.001
   Vertical (w)            -0.83        -0.00         0.79        0.226        2.263
   U component              8.45         9.99        11.73        0.519        5.195
   V component             -1.21        -0.00         1.31        0.400        4.001
   W component             -0.83        -0.00         0.79        0.226        2.263
   Horizontal (U&V)         8.46        10.00        11.73        0.519        5.192
   Total                    8.46        10.00        11.73        0.519        5.192

                       Min Reynolds     Mean Reynolds    Max Reynolds    Correlation
   Product             Stress (m/s)^2   Stress (m/s)^2   Stress (m/s)^2  Coefficient
   ----------------    --------------   --------------   --------------  -----------
   u'w'                     -0.599             0.008             0.615         0.067
   u'v'                     -1.078            -0.018             1.047        -0.085
   v'w'                     -0.534             0.004             0.687         0.045


   Friction Velocity (Ustar)  =      0.088 m/s
   Maximum Instantaneous TKE  =      1.518 (m/s)^2
   Maximum Instantaneous CTKE =      0.658 (m/s)^2


Grid Point Variance Summary:

   Y-coord  -79.05  -74.40  -69.75  -65.10  -60.45  -55.80  -51.15  -46.50  -41.85  -37.20  -32.55  -27.90  -23.25  -18.60  -13.95   -9.30   -4.65    0.00    4.65    9.30   13.95   18.60   23.25   27.90   32.55   37.20   41.85   46.50   51.15   55.80   60.45   65.10   69.75   74.40   79.05

   Height   Standard deviation at grid points for the u component:
   168.40    0.476   0.433   0.476   0.447   0.448   0.441   0.455   0.476   0.459   0.413   0.427   0.440   0.478   0.483   0.456   0.466   0.468   0.508   0.510   0.579   0.577   0.602   0.609   0.590   0.590   0.588   0.610   0.594   0.576   0.554   0.574   0.529   0.570   0.533   0.551
   163.75    0.469   0.454   0.429   0.446   0.436   0.447   0.429   0.459   0.477   0.426   0.433   0.517   0.510   0.508   0.517   0.503   0.491   0.483   0.545   0.614   0.616   0.623   0.604   0.641   0.634   0.579   0.567   0.587   0.590   0.589   0.543   0.569   0.556   0.549   0.488
   159.10    0.441   0.427   0.462   0.465   0.478   0.463   0.467   0.460   0.452   0.435   0.444   0.528   0.529   0.586   0.594   0.530   0.530   0.537   0.580   0.594   0.611   0.578   0.641   0.604   0.642   0.617   0.600   0.585   0.605   0.609   0.553   0.553   0.544   0.510   0.501
   154.45    0.456   0.461   0.465   0.429   0.425   0.424   0.436   0.451   0.494   0.479   0.517   0.514   0.539   0.562   0.525   0.533   0.579   0.575   0.607   0.594   0.601   0.575   0.585   0.636   0.643   0.610   0.613   0.599   0.588   0.547   0.592   0.540   0.560   0.551   0.547
   149.80    0.439   0.476   0.458   0.436   0.482   0.475   0.471   0.495   0.521   0.499   0.548   0.505   0.513   0.527   0.498   0.535   0.517   0.555   0.549   0.600   0.585   0.601   0.591   0.560   0.579   0.585   0.613   0.658   0.616   0.598   0.609   0.537   0.622   0.629   0.547
   145.15    0.462   0.445   0.405   0.454   0.491   0.472   0.483   0.514   0.551   0.543   0.547   0.552   0.564   0.505   0.501   0.509   0.533   0.527   0.567   0.553   0.613   0.607   0.560   0.570   0.529   0.573   0.623   0.608   0.628   0.633   0.593   0.587   0.608   0.594   0.584
   140.50    0.458   0.437   0.446   0.435   0.472   0.479   0.496   0.458   0.518   0.505   0.530   0.517   0.539   0.547   0.537   0.508   0.510   0.518   0.552   0.553   0.603   0.616   0.598   0.582   0.549   0.612   0.612   0.623   0.620   0.629   0.609   0.602   0.586   0.565   0.594
   135.85    0.466   0.451   0.460   0.464   0.526   0.493   0.486   0.482   0.490   0.483   0.541   0.572   0.582   0.605   0.554   0.540   0.502   0.475   0.518   0.569   0.625   0.594   0.559   0.559   0.551   0.611   0.631   0.657   0.653   0.648   0.629   0.585   0.561   0.536   0.592
   131.20    0.488   0.431   0.468   0.516   0.515   0.487   0.526   0.550   0.561   0.528   0.550   0.543   0.552   0.559   0.554   0.526   0.551   0.525   0.539   0.533   0.550   0.529   0.585   0.559   0.584   0.592   0.607   0.668   0.636   0.618   0.604   0.560   0.562   0.557   0.588
   126.55    0.457   0.444   0.468   0.497   0.507   0.504   0.499   0.527   0.494   0.552   0.592   0.605   0.591   0.583   0.590   0.570   0.525   0.553   0.555   0.516   0.497   0.503   0.535   0.562   0.570   0.597   0.614   0.662   0.641   0.608   0.576   0.568   0.598   0.632   0.600
   121.90    0.447   0.493   0.452   0.526   0.581   0.586   0.520   0.523   0.558   0.551   0.581   0.578   0.557   0.532   0.576   0.524   0.554   0.528   0.486   0.509   0.478   0.485   0.514   0.518   0.556   0.611   0.592   0.650   0.610   0.617   0.582   0.534   0.627   0.656   0.644
   117.25    0.529   0.531   0.470   0.536   0.551   0.550   0.558   0.533   0.568   0.568   0.559   0.553   0.509   0.513   0.556   0.524   0.533   0.572   0.528   0.499   0.488   0.480   0.480   0.517   0.564   0.566   0.604   0.625   0.628   0.601   0.579   0.572   0.633   0.640   0.675
   112.60    0.556   0.555   0.503   0.493   0.544   0.566   0.580   0.577   0.559   0.611   0.600   0.541   0.587   0.527   0.544   0.579   0.567   0.542   0.598   0.534   0.532   0.512   0.537   0.550   0.544   0.531   0.566   0.579   0.584   0.614   0.626   0.604   0.649   0.675   0.662
   107.95    0.588   0.564   0.514   0.522   0.530   0.516   0.566   0.582   0.623   0.602   0.543   0.581   0.584   0.533   0.507   0.568   0.543   0.594   0.561   0.560   0.533   0.514   0.526   0.559   0.549   0.546   0.570   0.551   0.550   0.581   0.618   0.612   0.593   0.644   0.681
   103.30    0.547   0.507   0.513   0.463   0.507   0.520   0.516   0.560   0.592   0.555   0.591   0.546   0.568   0.586   0.522   0.562   0.591   0.597   0.562   0.538   0.487   0.569   0.611   0.642   0.624   0.591   0.534   0.515   0.527   0.541   0.570   0.601   0.614   0.660   0.679
    98.65    0.550   0.528   0.498   0.466   0.494   0.528   0.515   0.540   0.530   0.588   0.587   0.545   0.551   0.543   0.533   0.569   0.553   0.533   0.556   0.524   0.505   0.565   0.594   0.598   0.591   0.525   0.567   0.517   0.539   0.570   0.562   0.623   0.635   0.669   0.701
    94.00    0.551   0.575   0.507   0.504   0.518   0.556   0.548   0.547   0.545   0.552   0.581   0.588   0.609   0.572   0.585   0.576   0.550   0.555   0.553   0.542   0.563   0.583   0.574   0.592   0.559   0.517   0.531   0.513   0.553   0.556   0.572   0.625   0.628   0.630   0.648
    89.35    0.548   0.559   0.563   0.506   0.540   0.576   0.582   0.585   0.591   0.615   0.587   0.560   0.591   0.643   0.573   0.565   0.586   0.519   0.544   0.601   0.585   0.583   0.594   0.574   0.572   0.554   0.528   0.522   0.581   0.565   0.546   0.557   0.578   0.642   0.690
    84.70    0.585   0.575   0.527   0.523   0.547   0.580   0.647   0.605   0.569   0.566   0.601   0.623   0.630   0.626   0.656   0.640   0.583   0.572   0.595   0.611   0.614   0.573   0.595   0.583   0.547   0.512   0.520   0.534   0.549   0.563   0.509   0.543   0.584   0.621   0.656
    80.05    0.608   0.577   0.530   0.527   0.561   0.562   0.626   0.645   0.587   0.558   0.571   0.639   0.653   0.689   0.646   0.665   0.654   0.595   0.615   0.614   0.619   0.596   0.599   0.606   0.603   0.589   0.523   0.506   0.565   0.560   0.584   0.592   0.605   0.575   0.607
    75.40    0.592   0.552   0.538   0.543   0.533   0.612   0.587   0.605   0.609   0.599   0.651   0.668   0.670   0.727   0.732   0.617   0.622   0.644   0.572   0.563   0.574   0.635   0.592   0.611   0.616   0.605   0.549   0.551   0.563   0.617   0.617   0.613   0.581   0.598   0.621
    70.75    0.564   0.586   0.515   0.564   0.588   0.598   0.618   0.632   0.670   0.625   0.652   0.693   0.737   0.760   0.703   0.628   0.634   0.672   0.611   0.589   0.636   0.658   0.641   0.656   0.628   0.595   0.566   0.594   0.597   0.639   0.605   0.580   0.605   0.629   0.620
    66.10    0.549   0.551   0.541   0.565   0.579   0.637   0.598   0.582   0.664   0.647   0.661   0.683   0.723   0.727   0.673   0.637   0.695   0.709   0.693   0.637   0.604   0.630   0.645   0.645   0.641   0.643   0.617   0.698   0.703   0.637   0.606   0.600   0.589   0.579   0.595
    61.45    0.549   0.595   0.618   0.615   0.559   0.610   0.584   0.596   0.651   0.684   0.638   0.670   0.671   0.718   0.715   0.693   0.689   0.755   0.712   0.667   0.620   0.585   0.639   0.601   0.657   0.668   0.658   0.724   0.743   0.666   0.664   0.620   0.599   0.595   0.635
    56.80    0.614   0.611   0.554   0.562   0.563   0.604   0.586   0.631   0.702   0.670   0.684   0.686   0.665   0.742   0.715   0.694   0.753   0.754   0.748   0.692   0.650   0.655   0.641   0.648   0.650   0.727   0.772   0.772   0.759   0.681   0.653   0.637   0.628   0.605   0.590
    52.15    0.580   0.591   0.518   0.545   0.561   0.586   0.619   0.632   0.672   0.678   0.631   0.672   0.634   0.670   0.703   0.767   0.771   0.725   0.702   0.679   0.651   0.654   0.640   0.678   0.716   0.760   0.802   0.727   0.706   0.729   0.694   0.721   0.694   0.635   0.632
    47.50    0.591   0.607   0.558   0.546   0.557   0.560   0.569   0.584   0.621   0.632   0.604   0.608   0.606   0.631   0.669   0.735   0.724   0.668   0.655   0.663   0.680   0.694   0.647   0.711   0.668   0.724   0.776   0.704   0.700   0.695   0.706   0.709   0.733   0.699   0.657
    42.85    0.590   0.621   0.562   0.582   0.570   0.638   0.596   0.595   0.592   0.553   0.581   0.596   0.615   0.643   0.693   0.698   0.687   0.646   0.644   0.658   0.683   0.712   0.651   0.669   0.703   0.689   0.736   0.769   0.694   0.631   0.623   0.715   0.715   0.760   0.726
    38.20    0.516   0.555   0.562   0.540   0.578   0.585   0.600   0.550   0.540   0.527   0.556   0.611   0.629   0.678   0.688   0.655   0.702   0.730   0.714   0.710   0.679   0.716   0.672   0.634   0.677   0.704   0.724   0.731   0.734   0.651   0.678   0.718   0.759   0.766   0.743
    33.55    0.544   0.499   0.513   0.532   0.548   0.517   0.547   0.530   0.508   0.513   0.507   0.575   0.646   0.701   0.674   0.709   0.680   0.656   0.667   0.701   0.694   0.759   0.727   0.676   0.667   0.687   0.722   0.728   0.722   0.676   0.688   0.694   0.692   0.751   0.708
    28.90    0.546   0.507   0.471   0.454   0.482   0.494   0.468   0.499   0.556   0.516   0.550   0.578   0.634   0.656   0.697   0.700   0.632   0.621   0.670   0.658   0.661   0.725   0.735   0.689   0.636   0.694   0.738   0.742   0.748   0.735   0.674   0.672   0.686   0.700   0.708
    24.25    0.517   0.513   0.487   0.477   0.523   0.501   0.477   0.494   0.505   0.515   0.530   0.561   0.611   0.643   0.691   0.682   0.617   0.657   0.682   0.653   0.634   0.688   0.705   0.636   0.634   0.687   0.705   0.691   0.682   0.709   0.663   0.679   0.661   0.702   0.657
    19.60    0.492   0.476   0.516   0.479   0.505   0.467   0.455   0.486   0.462   0.529   0.555   0.560   0.627   0.673   0.653   0.677   0.625   0.626   0.624   0.658   0.628   0.681   0.616   0.639   0.685   0.662   0.696   0.741   0.682   0.672   0.692   0.679   0.694   0.688   0.655
    14.95    0.487   0.462   0.533   0.518   0.517   0.515   0.531   0.499   0.491   0.538   0.567   0.589   0.616   0.593   0.575   0.587   0.603   0.605   0.617   0.641   0.608   0.603   0.643   0.709   0.673   0.679   0.716   0.693   0.707   0.739   0.694   0.697   0.662   0.669   0.625
    10.30    0.479   0.534   0.543   0.568   0.542   0.538   0.515   0.504   0.531   0.535   0.603   0.600   0.597   0.570   0.582   0.540   0.568   0.574   0.611   0.618   0.597   0.644   0.644   0.656   0.690   0.710   0.635   0.678   0.707   0.729   0.718   0.644   0.667   0.637   0.611
     5.65    0.530   0.565   0.540   0.596   0.570   0.559   0.535   0.578   0.572   0.561   0.588   0.605   0.576   0.566   0.575   0.530   0.545   0.563   0.571   0.614   0.617   0.658   0.621   0.614   0.631   0.634   0.635   0.655   0.638   0.646   0.649   0.655   0.649   0.601   0.590
     1.00    0.562   0.562   0.608   0.610   0.559   0.552   0.565   0.544   0.599   0.575   0.597   0.587   0.585   0.555   0.555   0.502   0.531   0.525   0.570   0.597   0.592   0.644   0.613   0.633   0.589   0.574   0.623   0.618   0.577   0.556   0.614   0.559   0.570   0.520   0.555

   Height   Standard deviation at grid points for the v component:
   168.40    0.450   0.467   0.449   0.458   0.461   0.434   0.449   0.405   0.399   0.429   0.420   0.395   0.397   0.399   0.416   0.432   0.401   0.379   0.402   0.390   0.396   0.429   0.460   0.483   0.480   0.433   0.428   0.382   0.349   0.330   0.352   0.380   0.358   0.348   0.352
   163.75    0.450   0.459   0.444   0.442   0.459   0.451   0.426   0.439   0.417   0.410   0.409   0.387   0.387   0.394   0.401   0.432   0.408   0.404   0.411   0.388   0.402   0.428   0.446   0.479   0.461   0.450   0.433   0.397   0.373   0.354   0.353   0.360   0.371   0.351   0.336
   159.10    0.444   0.439   0.435   0.428   0.441   0.434   0.447   0.417   0.414   0.402   0.424   0.397   0.396   0.401   0.412   0.446   0.448   0.438   0.452   0.454   0.410   0.396   0.424   0.418   0.450   0.464   0.453   0.419   0.394   0.358   0.349   0.348   0.352   0.338   0.345
   154.45    0.428   0.437   0.440   0.418   0.404   0.435   0.428   0.411   0.419   0.424   0.414   0.425   0.411   0.426   0.447   0.463   0.425   0.432   0.437   0.467   0.435   0.419   0.415   0.405   0.434   0.446   0.464   0.447   0.395   0.375   0.356   0.353   0.356   0.355   0.364
   149.80    0.408   0.409   0.413   0.420   0.416   0.420   0.405   0.414   0.424   0.415   0.392   0.424   0.436   0.419   0.432   0.442   0.459   0.417   0.425   0.450   0.448   0.426   0.452   0.429   0.429   0.417   0.455   0.413   0.379   0.380   0.384   0.385   0.353   0.369   0.393
   145.15    0.397   0.386   0.389   0.397   0.405   0.413   0.422   0.437   0.427   0.396   0.393   0.412   0.414   0.451   0.461   0.451   0.445   0.416   0.400   0.437   0.451   0.459   0.458   0.436   0.442   0.438   0.423   0.425   0.374   0.368   0.374   0.411   0.382   0.401   0.377
   140.50    0.377   0.369   0.382   0.395   0.413   0.401   0.418   0.435   0.411   0.402   0.391   0.392   0.416   0.432   0.459   0.461   0.418   0.419   0.412   0.432   0.424   0.437   0.454   0.412   0.424   0.445   0.431   0.422   0.398   0.383   0.404   0.396   0.411   0.393   0.384
   135.85    0.392   0.384   0.418   0.400   0.428   0.411   0.397   0.424   0.405   0.390   0.390   0.397   0.423   0.434   0.428   0.411   0.417   0.432   0.397   0.376   0.404   0.410   0.433   0.420   0.457   0.449   0.440   0.434   0.405   0.405   0.392   0.411   0.409   0.406   0.419
   131.20    0.389   0.406   0.386   0.402   0.417   0.424   0.414   0.384   0.409   0.382   0.387   0.417   0.424   0.406   0.415   0.401   0.401   0.396   0.376   0.378   0.381   0.387   0.402   0.403   0.424   0.460   0.467   0.426   0.401   0.414   0.410   0.399   0.422   0.409   0.384
   126.55    0.374   0.370   0.381   0.420   0.423   0.419   0.418   0.393   0.393   0.391   0.390   0.418   0.412   0.405   0.390   0.404   0.360   0.381   0.365   0.376   0.361   0.377   0.389   0.418   0.405   0.442   0.433   0.421   0.413   0.378   0.386   0.371   0.406   0.392   0.405
   121.90    0.358   0.369   0.392   0.439   0.414   0.395   0.386   0.393   0.410   0.383   0.396   0.399   0.407   0.395   0.417   0.375   0.357   0.378   0.357   0.366   0.360   0.347   0.389   0.402   0.410   0.421   0.425   0.422   0.430   0.406   0.379   0.387   0.390   0.384   0.402
   117.25    0.352   0.355   0.372   0.396   0.393   0.363   0.373   0.382   0.374   0.380   0.407   0.384   0.399   0.407   0.406   0.394   0.383   0.374   0.373   0.349   0.350   0.382   0.380   0.358   0.359   0.374   0.388   0.408   0.394   0.420   0.392   0.400   0.371   0.366   0.358
   112.60    0.365   0.368   0.359   0.350   0.362   0.354   0.368   0.379   0.356   0.368   0.374   0.381   0.382   0.397   0.390   0.386   0.413   0.380   0.371   0.368   0.373   0.352   0.371   0.356   0.351   0.379   0.370   0.396   0.415   0.421   0.427   0.388   0.358   0.348   0.370
   107.95    0.364   0.369   0.363   0.353   0.363   0.366   0.367   0.384   0.376   0.367   0.360   0.369   0.383   0.379   0.365   0.383   0.380   0.380   0.363   0.341   0.336   0.340   0.356   0.363   0.372   0.380   0.368   0.378   0.401   0.404   0.398   0.350   0.333   0.330   0.363
   103.30    0.363   0.380   0.362   0.346   0.360   0.364   0.385   0.380   0.376   0.363   0.366   0.356   0.368   0.387   0.372   0.405   0.399   0.376   0.352   0.356   0.363   0.374   0.388   0.377   0.371   0.367   0.373   0.374   0.361   0.371   0.352   0.366   0.345   0.344   0.381
    98.65    0.340   0.349   0.364   0.354   0.370   0.368   0.378   0.363   0.365   0.366   0.374   0.362   0.381   0.390   0.401   0.397   0.396   0.374   0.364   0.380   0.382   0.385   0.367   0.360   0.365   0.368   0.350   0.359   0.354   0.358   0.363   0.353   0.357   0.388   0.397
    94.00    0.313   0.344   0.356   0.380   0.367   0.371   0.391   0.394   0.385   0.370   0.376   0.377   0.380   0.406   0.427   0.415   0.409   0.383   0.371   0.363   0.379   0.369   0.358   0.353   0.357   0.351   0.357   0.351   0.343   0.343   0.356   0.362   0.381   0.385   0.404
    89.35    0.334   0.336   0.342   0.331   0.355   0.358   0.381   0.355   0.376   0.376   0.384   0.375   0.385   0.380   0.393   0.410   0.412   0.400   0.401   0.385   0.369   0.386   0.371   0.367   0.350   0.343   0.332   0.341   0.332   0.339   0.357   0.351   0.375   0.386   0.379
    84.70    0.318   0.316   0.341   0.341   0.342   0.369   0.382   0.379   0.390   0.376   0.357   0.375   0.353   0.366   0.392   0.400   0.413   0.413   0.415   0.378   0.401   0.408   0.390   0.370   0.349   0.332   0.316   0.340   0.332   0.357   0.331   0.324   0.333   0.364   0.373
    80.05    0.295   0.312   0.336   0.350   0.329   0.345   0.371   0.365   0.382   0.373   0.372   0.358   0.350   0.354   0.376   0.394   0.388   0.399   0.401   0.424   0.400   0.377   0.379   0.365   0.337   0.324   0.321   0.327   0.329   0.317   0.343   0.324   0.341   0.334   0.355
    75.40    0.319   0.332   0.334   0.354   0.345   0.346   0.334   0.338   0.360   0.361   0.352   0.344   0.358   0.353   0.383   0.372   0.373   0.401   0.406   0.426   0.383   0.384   0.383   0.371   0.339   0.328   0.340   0.338   0.334   0.315   0.329   0.322   0.336   0.310   0.348
    70.75    0.336   0.331   0.345   0.359   0.362   0.332   0.353   0.364   0.350   0.357   0.352   0.362   0.368   0.357   0.360   0.351   0.370   0.383   0.388   0.395   0.406   0.390   0.374   0.361   0.349   0.347   0.344   0.346   0.339   0.309   0.327   0.325   0.325   0.334   0.359
    66.10    0.300   0.316   0.344   0.348   0.357   0.331   0.359   0.356   0.338   0.355   0.350   0.359   0.362   0.371   0.361   0.359   0.378   0.360   0.389   0.411   0.430   0.401   0.376   0.382   0.360   0.353   0.354   0.361   0.346   0.324   0.325   0.344   0.330   0.346   0.352
    61.45    0.312   0.308   0.351   0.351   0.363   0.350   0.362   0.363   0.343   0.335   0.335   0.332   0.351   0.347   0.330   0.371   0.409   0.376   0.412   0.403   0.405   0.405   0.389   0.407   0.356   0.378   0.376   0.386   0.361   0.362   0.327   0.324   0.359   0.374   0.379
    56.80    0.333   0.336   0.343   0.350   0.366   0.347   0.357   0.362   0.365   0.346   0.330   0.341   0.361   0.367   0.346   0.357   0.380   0.385   0.401   0.388   0.380   0.369   0.377   0.397   0.362   0.361   0.353   0.379   0.369   0.346   0.343   0.364   0.383   0.356   0.364
    52.15    0.364   0.380   0.356   0.376   0.371   0.355   0.348   0.357   0.373   0.370   0.339   0.351   0.362   0.380   0.361   0.363   0.372   0.387   0.380   0.375   0.367   0.374   0.357   0.359   0.348   0.366   0.370   0.360   0.365   0.354   0.362   0.380   0.381   0.356   0.360
    47.50    0.387   0.384   0.374   0.355   0.352   0.381   0.388   0.378   0.363   0.362   0.342   0.355   0.344   0.370   0.362   0.339   0.360   0.370   0.357   0.366   0.377   0.384   0.386   0.381   0.392   0.378   0.363   0.352   0.351   0.362   0.373   0.396   0.384   0.414   0.387
    42.85    0.363   0.375   0.376   0.375   0.370   0.355   0.372   0.369   0.360   0.344   0.356   0.366   0.354   0.350   0.387   0.367   0.355   0.363   0.350   0.365   0.401   0.381   0.389   0.367   0.350   0.356   0.347   0.365   0.341   0.365   0.371   0.367   0.391   0.382   0.395
    38.20    0.358   0.366   0.363   0.383   0.375   0.367   0.373   0.338   0.365   0.380   0.374   0.367   0.343   0.369   0.392   0.387   0.364   0.383   0.355   0.385   0.401   0.405   0.369   0.371   0.338   0.359   0.377   0.361   0.360   0.395   0.375   0.393   0.381   0.387   0.400
    33.55    0.345   0.353   0.364   0.357   0.368   0.344   0.360   0.353   0.363   0.365   0.385   0.357   0.351   0.379   0.370   0.339   0.372   0.375   0.380   0.371   0.362   0.375   0.373   0.358   0.380   0.379   0.354   0.365   0.371   0.397   0.400   0.384   0.353   0.360   0.393
    28.90    0.346   0.349   0.345   0.374   0.382   0.357   0.365   0.377   0.352   0.378   0.383   0.362   0.365   0.371   0.340   0.332   0.355   0.369   0.377   0.364   0.357   0.355   0.353   0.363   0.389   0.381   0.365   0.369   0.381   0.358   0.379   0.375   0.380   0.358   0.384
    24.25    0.359   0.360   0.370   0.388   0.373   0.351   0.342   0.359   0.360   0.374   0.384   0.366   0.345   0.348   0.353   0.335   0.372   0.380   0.366   0.370   0.359   0.367   0.363   0.399   0.415   0.408   0.386   0.349   0.342   0.361   0.392   0.359   0.343   0.373   0.394
    19.60    0.361   0.375   0.362   0.371   0.381   0.362   0.349   0.346   0.352   0.373   0.384   0.384   0.385   0.364   0.361   0.381   0.363   0.361   0.369   0.344   0.348   0.356   0.363   0.413   0.427   0.409   0.373   0.344   0.333   0.355   0.364   0.384   0.370   0.351   0.368
    14.95    0.369   0.359   0.380   0.386   0.372   0.351   0.355   0.373   0.343   0.378   0.374   0.378   0.370   0.375   0.392   0.395   0.394   0.367   0.364   0.347   0.352   0.374   0.398   0.413   0.392   0.375   0.366   0.348   0.344   0.348   0.338   0.329   0.356   0.361   0.359
    10.30    0.397   0.398   0.390   0.388   0.409   0.373   0.351   0.369   0.373   0.381   0.371   0.366   0.388   0.394   0.408   0.430   0.425   0.404   0.408   0.364   0.349   0.357   0.363   0.360   0.368   0.376   0.374   0.322   0.325   0.325   0.349   0.350   0.340   0.329   0.339
     5.65    0.375   0.389   0.415   0.422   0.443   0.382   0.389   0.389   0.396   0.404   0.408   0.380   0.393   0.396   0.388   0.403   0.408   0.430   0.407   0.401   0.384   0.363   0.367   0.338   0.344   0.355   0.348   0.344   0.337   0.336   0.357   0.336   0.337   0.331   0.367
     1.00    0.362   0.384   0.406   0.406   0.422   0.400   0.381   0.384   0.401   0.424   0.408   0.400   0.392   0.396   0.411   0.428   0.426   0.453   0.443   0.388   0.366   0.347   0.359   0.349   0.334   0.345   0.332   0.350   0.344   0.373   0.391   0.372   0.348   0.334   0.344

   Height   Standard deviation at grid points for the w component:
   168.40    0.224   0.236   0.222   0.214   0.229   0.223   0.221   0.228   0.232   0.225   0.228   0.228   0.227   0.228   0.231   0.229   0.231   0.240   0.230   0.233   0.237   0.231   0.235   0.229   0.217   0.223   0.220   0.227   0.226   0.230   0.225   0.220   0.218   0.215   0.221
   163.75    0.233   0.230   0.228   0.218   0.221   0.225   0.223   0.230   0.232   0.226   0.229   0.232   0.231   0.230   0.222   0.235   0.231   0.226   0.228   0.236   0.226   0.225   0.228   0.228   0.224   0.226   0.220   0.224   0.233   0.232   0.225   0.216   0.215   0.216   0.222
   159.10    0.223   0.218   0.227   0.223   0.224   0.222   0.225   0.222   0.226   0.223   0.228   0.229   0.226   0.228   0.224   0.224   0.228   0.222   0.226   0.232   0.220   0.224   0.230   0.221   0.228   0.218   0.216   0.224   0.228   0.232   0.222   0.222   0.219   0.223   0.230
   154.45    0.222   0.226   0.222   0.217   0.223   0.218   0.213   0.215   0.217   0.225   0.224   0.230   0.227   0.225   0.219   0.225   0.227   0.219   0.227   0.223   0.219   0.218   0.229   0.229   0.224   0.229   0.230   0.233   0.231   0.227   0.226   0.226   0.225   0.228   0.222
   149.80    0.225   0.224   0.219   0.215   0.221   0.217   0.210   0.208   0.210   0.217   0.220   0.227   0.229   0.234   0.225   0.224   0.225   0.223   0.226   0.233   0.220   0.227   0.224   0.224   0.228   0.223   0.233   0.232   0.228   0.222   0.220   0.230   0.229   0.235   0.224
   145.15    0.215   0.220   0.219   0.225   0.226   0.219   0.220   0.210   0.209   0.221   0.227   0.222   0.231   0.230   0.221   0.228   0.229   0.223   0.225   0.231   0.230   0.235   0.225   0.229   0.232   0.232   0.238   0.242   0.225   0.226   0.222   0.224   0.226   0.234   0.228
   140.50    0.220   0.217   0.221   0.220   0.221   0.226   0.220   0.207   0.213   0.232   0.228   0.223   0.220   0.226   0.224   0.231   0.238   0.229   0.225   0.231   0.231   0.234   0.233   0.227   0.235   0.235   0.233   0.242   0.238   0.228   0.228   0.223   0.220   0.231   0.234
   135.85    0.216   0.218   0.219   0.224   0.221   0.228   0.224   0.218   0.227   0.230   0.226   0.226   0.222   0.224   0.219   0.229   0.229   0.233   0.230   0.235   0.228   0.229   0.238   0.235   0.233   0.232   0.231   0.231   0.235   0.234   0.234   0.231   0.227   0.232   0.238
   131.20    0.222   0.219   0.218   0.218   0.222   0.220   0.225   0.220   0.223   0.228   0.227   0.221   0.218   0.219   0.223   0.230   0.231   0.227   0.235   0.234   0.229   0.237   0.234   0.235   0.235   0.228   0.230   0.228   0.231   0.232   0.231   0.236   0.233   0.231   0.238
   126.55    0.219   0.221   0.215   0.218   0.226   0.224   0.224   0.222   0.218   0.226   0.228   0.224   0.228   0.226   0.221   0.222   0.231   0.231   0.234   0.231   0.228   0.232   0.233   0.232   0.230   0.230   0.235   0.232   0.223   0.229   0.233   0.232   0.222   0.230   0.233
   121.90    0.219   0.216   0.216   0.215   0.219   0.213   0.219   0.224   0.220   0.222   0.225   0.226   0.224   0.223   0.230   0.231   0.235   0.237   0.230   0.232   0.222   0.230   0.227   0.228   0.233   0.234   0.228   0.234   0.228   0.226   0.236   0.229   0.231   0.220   0.230
   117.25    0.217   0.216   0.219   0.219   0.213   0.216   0.227   0.224   0.225   0.230   0.231   0.235   0.230   0.227   0.228   0.236   0.237   0.231   0.224   0.235   0.232   0.229   0.227   0.232   0.237   0.233   0.231   0.227   0.230   0.224   0.230   0.230   0.226   0.229   0.237
   112.60    0.217   0.221   0.219   0.221   0.219   0.224   0.233   0.228   0.227   0.238   0.237   0.233   0.227   0.229   0.239   0.232   0.231   0.224   0.222   0.226   0.230   0.226   0.228   0.231   0.231   0.227   0.221   0.222   0.221   0.226   0.228   0.231   0.228   0.232   0.242
   107.95    0.220   0.220   0.218   0.219   0.214   0.224   0.222   0.227   0.233   0.241   0.240   0.231   0.230   0.229   0.236   0.229   0.227   0.227   0.227   0.237   0.231   0.233   0.229   0.232   0.245   0.227   0.225   0.228   0.229   0.228   0.234   0.227   0.226   0.229   0.227
   103.30    0.217   0.218   0.228   0.220   0.222   0.222   0.220   0.222   0.229   0.236   0.238   0.232   0.228   0.222   0.231   0.227   0.229   0.233   0.233   0.231   0.223   0.238   0.240   0.228   0.235   0.236   0.227   0.232   0.234   0.229   0.230   0.234   0.236   0.231   0.230
    98.65    0.225   0.207   0.219   0.226   0.215   0.214   0.222   0.227   0.234   0.245   0.233   0.222   0.228   0.228   0.236   0.229   0.225   0.231   0.227   0.222   0.233   0.235   0.234   0.240   0.218   0.231   0.236   0.237   0.224   0.225   0.220   0.225   0.226   0.231   0.227
    94.00    0.224   0.224   0.222   0.223   0.220   0.222   0.226   0.234   0.239   0.239   0.232   0.232   0.232   0.238   0.237   0.232   0.235   0.232   0.224   0.226   0.226   0.236   0.228   0.228   0.221   0.231   0.231   0.234   0.227   0.227   0.229   0.235   0.232   0.229   0.226
    89.35    0.227   0.217   0.220   0.216   0.219   0.214   0.218   0.222   0.225   0.231   0.224   0.220   0.230   0.235   0.237   0.237   0.230   0.226   0.228   0.234   0.228   0.237   0.232   0.222   0.223   0.223   0.221   0.226   0.232   0.230   0.235   0.243   0.240   0.236   0.241
    84.70    0.225   0.230   0.233   0.221   0.219   0.216   0.217   0.216   0.213   0.230   0.225   0.224   0.230   0.237   0.240   0.235   0.231   0.244   0.239   0.242   0.227   0.231   0.226   0.235   0.230   0.232   0.219   0.229   0.231   0.237   0.241   0.241   0.244   0.237   0.238
    80.05    0.226   0.230   0.229   0.228   0.222   0.224   0.226   0.222   0.213   0.219   0.216   0.224   0.236   0.236   0.234   0.233   0.235   0.236   0.237   0.242   0.242   0.226   0.219   0.222   0.222   0.216   0.216   0.225   0.238   0.233   0.233   0.245   0.247   0.247   0.241
    75.40    0.225   0.225   0.229   0.223   0.224   0.224   0.220   0.220   0.214   0.213   0.212   0.226   0.231   0.230   0.236   0.239   0.228   0.229   0.231   0.244   0.238   0.233   0.231   0.237   0.226   0.211   0.218   0.229   0.229   0.233   0.236   0.236   0.240   0.236   0.241
    70.75    0.234   0.231   0.228   0.223   0.218   0.222   0.224   0.222   0.217   0.219   0.223   0.228   0.234   0.235   0.231   0.228   0.223   0.230   0.233   0.232   0.230   0.229   0.240   0.227   0.225   0.213   0.218   0.219   0.235   0.231   0.231   0.233   0.236   0.236   0.239
    66.10    0.225   0.222   0.216   0.215   0.225   0.228   0.225   0.215   0.219   0.221   0.233   0.234   0.239   0.237   0.236   0.225   0.227   0.227   0.235   0.224   0.223   0.233   0.237   0.231   0.221   0.221   0.227   0.229   0.233   0.232   0.229   0.228   0.237   0.241   0.237
    61.45    0.220   0.216   0.217   0.213   0.222   0.230   0.218   0.218   0.217   0.228   0.230   0.240   0.240   0.241   0.233   0.227   0.226   0.234   0.233   0.226   0.227   0.223   0.234   0.233   0.220   0.221   0.227   0.223   0.232   0.233   0.231   0.233   0.233   0.240   0.234
    56.80    0.213   0.219   0.222   0.218   0.224   0.222   0.214   0.219   0.219   0.227   0.237   0.240   0.233   0.242   0.236   0.232   0.224   0.221   0.234   0.227   0.229   0.234   0.238   0.234   0.228   0.220   0.232   0.237   0.240   0.230   0.233   0.233   0.231   0.239   0.229
    52.15    0.210   0.220   0.219   0.209   0.209   0.217   0.216   0.214   0.222   0.230   0.229   0.234   0.235   0.235   0.233   0.237   0.223   0.230   0.229   0.234   0.243   0.241   0.235   0.230   0.226   0.226   0.230   0.230   0.230   0.235   0.229   0.236   0.234   0.227   0.233
    47.50    0.227   0.228   0.218   0.215   0.213   0.204   0.216   0.218   0.223   0.230   0.233   0.239   0.244   0.236   0.238   0.225   0.229   0.225   0.227   0.239   0.235   0.238   0.232   0.231   0.225   0.224   0.227   0.224   0.227   0.221   0.225   0.230   0.227   0.232   0.234
    42.85    0.226   0.227   0.215   0.221   0.215   0.220   0.213   0.218   0.220   0.224   0.227   0.232   0.240   0.226   0.227   0.228   0.227   0.218   0.222   0.233   0.230   0.233   0.233   0.237   0.222   0.229   0.229   0.229   0.224   0.227   0.225   0.222   0.224   0.229   0.230
    38.20    0.225   0.227   0.232   0.222   0.223   0.227   0.216   0.216   0.218   0.225   0.232   0.234   0.230   0.228   0.228   0.233   0.231   0.221   0.219   0.229   0.228   0.230   0.237   0.236   0.229   0.227   0.228   0.233   0.231   0.220   0.226   0.226   0.219   0.228   0.227
    33.55    0.231   0.223   0.233   0.224   0.233   0.223   0.218   0.219   0.216   0.221   0.230   0.231   0.223   0.229   0.230   0.235   0.229   0.223   0.225   0.235   0.230   0.234   0.240   0.230   0.230   0.229   0.226   0.230   0.234   0.227   0.236   0.227   0.230   0.228   0.218
    28.90    0.228   0.227   0.235   0.229   0.235   0.229   0.230   0.223   0.219   0.223   0.232   0.228   0.228   0.235   0.234   0.237   0.228   0.231   0.232   0.232   0.226   0.232   0.235   0.232   0.227   0.230   0.230   0.226   0.226   0.222   0.227   0.230   0.229   0.227   0.214
    24.25    0.224   0.225   0.231   0.239   0.243   0.229   0.221   0.225   0.223   0.230   0.230   0.225   0.232   0.233   0.230   0.240   0.238   0.233   0.234   0.231   0.227   0.231   0.231   0.232   0.240   0.231   0.222   0.221   0.225   0.222   0.229   0.237   0.231   0.223   0.222
    19.60    0.226   0.240   0.243   0.238   0.232   0.229   0.225   0.218   0.224   0.230   0.235   0.230   0.230   0.234   0.238   0.242   0.230   0.225   0.222   0.227   0.227   0.232   0.223   0.233   0.229   0.233   0.231   0.227   0.224   0.231   0.227   0.228   0.224   0.216   0.212
    14.95    0.224   0.231   0.245   0.240   0.235   0.237   0.222   0.226   0.235   0.228   0.239   0.222   0.240   0.237   0.241   0.230   0.220   0.214   0.221   0.220   0.232   0.235   0.228   0.225   0.222   0.232   0.233   0.230   0.227   0.232   0.223   0.225   0.225   0.220   0.215
    10.30    0.225   0.225   0.240   0.237   0.236   0.232   0.227   0.217   0.228   0.231   0.226   0.227   0.241   0.232   0.236   0.224   0.220   0.216   0.217   0.216   0.227   0.228   0.224   0.230   0.220   0.225   0.225   0.215   0.215   0.221   0.220   0.223   0.222   0.225   0.228
     5.65    0.222   0.227   0.233   0.234   0.229   0.230   0.227   0.223   0.222   0.227   0.222   0.227   0.232   0.233   0.232   0.232   0.233   0.220   0.219   0.218   0.222   0.226   0.226   0.227   0.224   0.225   0.219   0.215   0.218   0.222   0.217   0.215   0.225   0.234   0.232
     1.00    0.228   0.226   0.225   0.232   0.234   0.227   0.215   0.231   0.222   0.223   0.222   0.227   0.235   0.228   0.231   0.227   0.228   0.227   0.227   0.226   0.217   0.218   0.229   0.230   0.221   0.224   0.215   0.217   0.213   0.221   0.219   0.218   0.225   0.235   0.228

   Mean standard deviation across all grid points:
      u component:    0.588 m/s
      v component:    0.380 m/s
      w component:    0.227 m/s


U-component (X) statistics from the interpolated hub point:

   Mean =   9.9913 m/s
   TI   =   5.1950 %


Processing complete.  6155.2 CPU seconds used.
