
This summary file was generated by TurbSim (from OpenFAST-v3.5.3) on 20-Apr-2025 at 02:04:07.


Runtime Options:

**********  Random seed #1
    RANLUX  Type of random number generator
         F  Output binary HH turbulence parameters?
         F  Output formatted turbulence parameters?
         F  Output AeroDyn HH files?
         T  Output AeroDyn FF files?
         F  Output BLADED FF files?
         F  Output tower data?
         F  Output HAWC FF files?
         F  Output formatted FF files?
         T  Output coherent turbulence time step file?
 0 -  NONE  IEC turbulence models scaled to exact specified standard deviation


Turbine/Model Specifications:

        37  Vertical grid-point matrix dimension
        35  Horizontal grid-point matrix dimension
     0.250  Time step [seconds]
   900.000  Analysis time [seconds]
   900.000  Usable output time [seconds]
    89.350  Hub height [m]
   167.400  Grid height [m]
   158.100  Grid width [m]
     0.000  Vertical flow angle [degrees]
     0.000  Horizontal flow angle [degrees]


Meteorological Boundary Conditions:

    TIMESR  User-input time series spectral model
       N/A  IEC standard
       N/A  IEC turbulence characteristic
       N/A  IEC turbulence type
       N/A  IEC Extreme Turbulence Model (ETM) "c" parameter [m/s]
       PL   Wind profile type
    90.000  Reference height [m]
    10.000  Reference wind speed [m/s]
       N/A  Jet height [m]
     0.120  Power law exponent
     0.030  Surface roughness length [m]


Non-IEC Meteorological Boundary Conditions:

    45.000  Site latitude [degrees]
     0.050  Gradient Richardson number
     0.480  Friction or shear velocity [m/s]
       N/A  Mixing layer depth [m]
       N/A  Mean hub u'w' Reynolds stress
       N/A  Mean hub u'v' Reynolds stress
       N/A  Mean hub v'w' Reynolds stress


Spatial Coherence Models:

       IEC  u-component coherence model
       IEC  v-component coherence model
       IEC  w-component coherence model
(   12.000, 0.353E-03)  u-component coherence parameters
(   12.000, 0.353E-03)  v-component coherence parameters
(   12.000, 0.353E-03)  w-component coherence parameters
       N/A  Coherence exponent


Coherent Turbulence Scaling Parameters:

.\EventData
            Name of the path containing the coherent turbulence data files
       les  Type of coherent turbulence data files
     1.000  Disturbance scale (ratio of wave height to rotor diameter)
     0.500  Fractional location of tower centerline from right
     0.500  Fractional location of hub height from the bottom of the dataset
    30.000  Minimum start time for coherent structures [seconds]


Profiles from User-Defined Time-Series Input:

  Height   Wind Speed   Horizontal Angle   Vertical Angle
   (m)        (m/s)          (deg)              (deg)    
  ------   ----------   ----------------   --------------
   94.00      10.00          -0.63                0.00


You have requested that the following file(s) be generated:

   /kfs3/scratch/agupta/Projects/RL_Incubator/FinalRuns_Veer/Seed4/./FFSim_Seed4/Cond00_v10.0_PL0.12_TI5.0/Case0_wdirp00/Seed_2/TurbSim/HighT2.bts (AeroDyn/TurbSim full-field wind file)


Turbulence Simulation Scaling Parameter Summary:

   Turbulence model used                            =  User-input time series
   Gradient Richardson number                       =    0.050
   Monin-Obukhov (M-O) z/L parameter                =    0.067
   Monin-Obukhov (M-O) length scale                 = 1340.250 m
   Mean wind speed at hub height                    =    9.991 m/s

   Wind profile type                                =  Power law
   Power law exponent                               =    0.120
   Mean shear across rotor disk                     =    0.019 (m/s)/m
   Assumed rotor diameter                           =  158.100 m
   Surface roughness length                         =    0.030 m

   Nyquist frequency of turbulent wind field        =    2.000 Hz

   Number of time steps in the FFT                  =     3600
   Number of time steps output                      =     3600
   Number of points simulated                       =     1296


Mean Flow Angles:

   Vertical   =   0.0 degrees
   Horizontal =   0.0 degrees

Mean Wind Speed Profile:

   Height    Wind Speed   Horizontal Angle  Vertical Angle  U-comp (X)   V-comp (Y)   W-comp (Z)
     (m)        (m/s)         (degrees)       (degrees)       (m/s)        (m/s)        (m/s)   
   ------    ----------   ----------------  --------------  ----------   ----------   ----------
    168.4       10.78            0.00            0.00         10.78         0.00         0.00
    163.7       10.74            0.00            0.00         10.74         0.00         0.00
    159.1       10.71            0.00            0.00         10.71         0.00         0.00
    154.4       10.67            0.00            0.00         10.67         0.00         0.00
    149.8       10.63            0.00            0.00         10.63         0.00         0.00
    145.1       10.59            0.00            0.00         10.59         0.00         0.00
    140.5       10.55            0.00            0.00         10.55         0.00         0.00
    135.8       10.51            0.00            0.00         10.51         0.00         0.00
    131.2       10.46            0.00            0.00         10.46         0.00         0.00
    126.5       10.42            0.00            0.00         10.42         0.00         0.00
    121.9       10.37            0.00            0.00         10.37         0.00         0.00
    117.2       10.32            0.00            0.00         10.32         0.00         0.00
    112.6       10.27            0.00            0.00         10.27         0.00         0.00
    107.9       10.22            0.00            0.00         10.22         0.00         0.00
    103.3       10.17            0.00            0.00         10.17         0.00         0.00
     98.6       10.11            0.00            0.00         10.11         0.00         0.00
     94.0       10.05            0.00            0.00         10.05         0.00         0.00
     89.3        9.99            0.00            0.00          9.99         0.00         0.00
     84.7        9.93            0.00            0.00          9.93         0.00         0.00
     80.0        9.86            0.00            0.00          9.86         0.00         0.00
     75.4        9.79            0.00            0.00          9.79         0.00         0.00
     70.7        9.72            0.00            0.00          9.72         0.00         0.00
     66.1        9.64            0.00            0.00          9.64         0.00         0.00
     61.4        9.55            0.00            0.00          9.55         0.00         0.00
     56.8        9.46            0.00            0.00          9.46         0.00         0.00
     52.1        9.37            0.00            0.00          9.37         0.00         0.00
     47.5        9.26            0.00            0.00          9.26         0.00         0.00
     42.8        9.15            0.00            0.00          9.15         0.00         0.00
     38.2        9.02            0.00            0.00          9.02         0.00         0.00
     33.5        8.88            0.00            0.00          8.88         0.00         0.00
     28.9        8.73            0.00            0.00          8.73         0.00         0.00
     24.2        8.54            0.00            0.00          8.54         0.00         0.00
     19.6        8.33            0.00            0.00          8.33         0.00         0.00
     14.9        8.06            0.00            0.00          8.06         0.00         0.00
     10.3        7.71            0.00            0.00          7.71         0.00         0.00
      5.6        7.17            0.00            0.00          7.17         0.00         0.00
      1.0        5.83            0.00            0.00          5.83         0.00         0.00


Harvested Random Seeds after Generation of the Random Numbers:

     65026800 K 1
            0 K 2


Hub-Height Simulated Turbulence Statistical Summary:

   Type of Wind        Min (m/s)   Mean (m/s)    Max (m/s)  Sigma (m/s)       TI (%)
   ----------------    ---------   ----------    ---------  -----------       ------
   Longitudinal (u)         8.41         9.99        11.52        0.502        5.027
   Lateral (v)             -1.16        -0.00         1.30        0.329        3.295
   Vertical (w)            -0.76        -0.00         0.82        0.231        2.313
   U component              8.41         9.99        11.52        0.502        5.027
   V component             -1.16        -0.00         1.30        0.329        3.295
   W component             -0.76        -0.00         0.82        0.231        2.313
   Horizontal (U&V)         8.41        10.00        11.52        0.503        5.028
   Total                    8.41        10.00        11.52        0.503        5.026

                       Min Reynolds     Mean Reynolds    Max Reynolds    Correlation
   Product             Stress (m/s)^2   Stress (m/s)^2   Stress (m/s)^2  Coefficient
   ----------------    --------------   --------------   --------------  -----------
   u'w'                     -0.819             0.001             0.585         0.009
   u'v'                     -0.791            -0.024             0.748        -0.144
   v'w'                     -0.550             0.005             0.513         0.066


   Friction Velocity (Ustar)  =      0.033 m/s
   Maximum Instantaneous TKE  =      1.281 (m/s)^2
   Maximum Instantaneous CTKE =      0.548 (m/s)^2


Grid Point Variance Summary:

   Y-coord  -79.05  -74.40  -69.75  -65.10  -60.45  -55.80  -51.15  -46.50  -41.85  -37.20  -32.55  -27.90  -23.25  -18.60  -13.95   -9.30   -4.65    0.00    4.65    9.30   13.95   18.60   23.25   27.90   32.55   37.20   41.85   46.50   51.15   55.80   60.45   65.10   69.75   74.40   79.05

   Height   Standard deviation at grid points for the u component:
   168.40    0.401   0.409   0.438   0.457   0.440   0.428   0.442   0.420   0.438   0.452   0.481   0.500   0.481   0.476   0.448   0.466   0.477   0.493   0.503   0.508   0.524   0.556   0.540   0.551   0.552   0.571   0.589   0.530   0.560   0.560   0.604   0.604   0.544   0.526   0.550
   163.75    0.414   0.436   0.435   0.446   0.429   0.414   0.429   0.381   0.413   0.436   0.467   0.479   0.506   0.467   0.458   0.484   0.513   0.502   0.495   0.501   0.539   0.529   0.555   0.545   0.519   0.528   0.538   0.556   0.573   0.562   0.572   0.578   0.573   0.547   0.586
   159.10    0.399   0.420   0.449   0.430   0.448   0.412   0.433   0.407   0.450   0.445   0.455   0.501   0.482   0.474   0.474   0.514   0.506   0.498   0.480   0.501   0.531   0.576   0.560   0.502   0.520   0.542   0.546   0.561   0.563   0.519   0.538   0.520   0.509   0.548   0.572
   154.45    0.431   0.433   0.440   0.461   0.475   0.473   0.444   0.423   0.436   0.452   0.459   0.469   0.499   0.508   0.491   0.529   0.512   0.509   0.487   0.507   0.558   0.544   0.550   0.508   0.533   0.541   0.550   0.550   0.549   0.551   0.533   0.529   0.548   0.519   0.558
   149.80    0.465   0.490   0.488   0.507   0.469   0.464   0.451   0.444   0.412   0.429   0.474   0.480   0.513   0.513   0.463   0.531   0.533   0.553   0.521   0.511   0.544   0.529   0.513   0.494   0.529   0.528   0.548   0.585   0.552   0.564   0.535   0.506   0.509   0.529   0.533
   145.15    0.506   0.485   0.514   0.502   0.491   0.479   0.474   0.450   0.435   0.423   0.450   0.487   0.527   0.544   0.487   0.540   0.563   0.563   0.532   0.528   0.529   0.506   0.479   0.503   0.508   0.557   0.577   0.569   0.560   0.596   0.568   0.510   0.513   0.533   0.530
   140.50    0.457   0.481   0.473   0.495   0.502   0.499   0.488   0.451   0.452   0.446   0.480   0.506   0.522   0.540   0.522   0.522   0.569   0.572   0.555   0.589   0.532   0.533   0.561   0.531   0.556   0.552   0.554   0.583   0.576   0.603   0.586   0.550   0.529   0.550   0.543
   135.85    0.477   0.467   0.469   0.477   0.467   0.508   0.504   0.457   0.430   0.447   0.492   0.494   0.509   0.514   0.562   0.562   0.579   0.572   0.589   0.617   0.582   0.595   0.568   0.579   0.592   0.537   0.565   0.554   0.537   0.552   0.567   0.534   0.566   0.539   0.540
   131.20    0.494   0.474   0.485   0.452   0.490   0.503   0.505   0.470   0.425   0.465   0.505   0.495   0.506   0.529   0.505   0.523   0.595   0.609   0.578   0.604   0.646   0.595   0.597   0.562   0.552   0.570   0.548   0.564   0.570   0.525   0.544   0.532   0.527   0.535   0.527
   126.55    0.509   0.502   0.485   0.499   0.476   0.500   0.503   0.465   0.450   0.467   0.476   0.500   0.519   0.520   0.528   0.573   0.617   0.612   0.620   0.622   0.615   0.601   0.609   0.583   0.530   0.555   0.550   0.548   0.559   0.517   0.558   0.557   0.551   0.560   0.512
   121.90    0.501   0.538   0.500   0.486   0.443   0.471   0.465   0.488   0.491   0.512   0.504   0.530   0.511   0.516   0.534   0.573   0.624   0.589   0.603   0.622   0.601   0.603   0.626   0.578   0.566   0.568   0.595   0.568   0.575   0.563   0.571   0.601   0.565   0.547   0.527
   117.25    0.539   0.536   0.511   0.483   0.476   0.462   0.487   0.507   0.501   0.517   0.535   0.528   0.488   0.508   0.552   0.552   0.589   0.617   0.619   0.610   0.605   0.606   0.626   0.590   0.578   0.576   0.591   0.565   0.578   0.613   0.601   0.572   0.538   0.545   0.541
   112.60    0.514   0.500   0.483   0.509   0.491   0.503   0.518   0.521   0.519   0.514   0.526   0.527   0.506   0.533   0.534   0.585   0.576   0.567   0.583   0.582   0.579   0.582   0.596   0.602   0.600   0.581   0.587   0.590   0.573   0.554   0.573   0.580   0.539   0.525   0.525
   107.95    0.487   0.502   0.499   0.485   0.502   0.528   0.516   0.507   0.489   0.507   0.512   0.514   0.498   0.521   0.522   0.532   0.545   0.540   0.554   0.574   0.570   0.601   0.571   0.565   0.608   0.629   0.585   0.575   0.549   0.550   0.522   0.563   0.530   0.517   0.534
   103.30    0.480   0.491   0.481   0.502   0.516   0.509   0.507   0.498   0.473   0.508   0.511   0.496   0.490   0.483   0.517   0.506   0.513   0.517   0.519   0.568   0.564   0.562   0.565   0.547   0.585   0.583   0.545   0.517   0.523   0.520   0.549   0.548   0.520   0.533   0.538
    98.65    0.491   0.530   0.504   0.495   0.509   0.505   0.490   0.482   0.485   0.496   0.491   0.484   0.482   0.460   0.477   0.473   0.480   0.484   0.533   0.591   0.587   0.564   0.601   0.561   0.585   0.582   0.525   0.518   0.515   0.546   0.537   0.536   0.535   0.532   0.521
    94.00    0.486   0.502   0.488   0.499   0.502   0.497   0.482   0.483   0.476   0.494   0.473   0.484   0.485   0.461   0.474   0.467   0.495   0.505   0.531   0.562   0.580   0.558   0.581   0.593   0.544   0.498   0.541   0.535   0.534   0.560   0.534   0.556   0.523   0.515   0.519
    89.35    0.476   0.492   0.482   0.467   0.495   0.491   0.474   0.482   0.456   0.474   0.466   0.450   0.467   0.464   0.471   0.467   0.480   0.502   0.484   0.550   0.551   0.578   0.578   0.569   0.552   0.515   0.543   0.538   0.520   0.551   0.564   0.562   0.523   0.519   0.525
    84.70    0.485   0.485   0.484   0.490   0.502   0.491   0.500   0.444   0.434   0.459   0.447   0.461   0.462   0.491   0.483   0.482   0.483   0.505   0.506   0.539   0.557   0.550   0.573   0.576   0.574   0.538   0.526   0.528   0.565   0.565   0.559   0.540   0.520   0.498   0.504
    80.05    0.466   0.477   0.481   0.498   0.520   0.506   0.505   0.480   0.460   0.434   0.443   0.439   0.455   0.476   0.506   0.503   0.513   0.530   0.534   0.586   0.560   0.589   0.585   0.595   0.545   0.556   0.521   0.533   0.536   0.557   0.551   0.528   0.488   0.483   0.505
    75.40    0.480   0.480   0.475   0.487   0.498   0.538   0.520   0.501   0.491   0.472   0.482   0.498   0.505   0.528   0.513   0.528   0.550   0.561   0.561   0.569   0.578   0.585   0.607   0.602   0.592   0.546   0.537   0.562   0.545   0.542   0.549   0.539   0.491   0.502   0.505
    70.75    0.530   0.502   0.481   0.487   0.502   0.517   0.537   0.517   0.504   0.447   0.462   0.494   0.513   0.520   0.532   0.518   0.538   0.568   0.552   0.536   0.554   0.566   0.603   0.616   0.592   0.570   0.556   0.599   0.586   0.567   0.524   0.503   0.511   0.491   0.519
    66.10    0.504   0.515   0.504   0.489   0.491   0.490   0.519   0.494   0.493   0.456   0.462   0.479   0.495   0.499   0.541   0.539   0.567   0.576   0.525   0.526   0.538   0.567   0.584   0.584   0.587   0.543   0.555   0.579   0.584   0.553   0.533   0.500   0.487   0.497   0.514
    61.45    0.472   0.511   0.525   0.509   0.483   0.481   0.516   0.514   0.505   0.484   0.488   0.515   0.530   0.512   0.551   0.579   0.570   0.533   0.559   0.560   0.571   0.587   0.609   0.602   0.571   0.559   0.588   0.576   0.571   0.573   0.543   0.527   0.522   0.492   0.508
    56.80    0.507   0.521   0.543   0.541   0.535   0.508   0.500   0.532   0.540   0.505   0.491   0.492   0.477   0.529   0.549   0.560   0.556   0.571   0.546   0.593   0.618   0.623   0.593   0.605   0.570   0.585   0.565   0.546   0.550   0.544   0.556   0.536   0.514   0.524   0.516
    52.15    0.527   0.541   0.528   0.545   0.536   0.568   0.505   0.532   0.510   0.472   0.505   0.544   0.543   0.547   0.522   0.576   0.586   0.577   0.607   0.623   0.590   0.603   0.617   0.624   0.568   0.592   0.545   0.543   0.566   0.528   0.537   0.537   0.551   0.534   0.520
    47.50    0.517   0.513   0.531   0.567   0.579   0.582   0.538   0.553   0.509   0.541   0.537   0.530   0.545   0.569   0.552   0.591   0.590   0.573   0.590   0.584   0.615   0.601   0.647   0.627   0.567   0.606   0.549   0.542   0.561   0.555   0.563   0.564   0.560   0.567   0.550
    42.85    0.514   0.510   0.513   0.571   0.566   0.503   0.522   0.498   0.536   0.527   0.556   0.566   0.593   0.605   0.576   0.574   0.571   0.574   0.577   0.559   0.585   0.607   0.613   0.603   0.598   0.594   0.574   0.570   0.545   0.566   0.530   0.564   0.573   0.561   0.565
    38.20    0.506   0.495   0.523   0.546   0.537   0.534   0.552   0.536   0.540   0.532   0.559   0.557   0.573   0.600   0.605   0.572   0.559   0.570   0.575   0.540   0.562   0.554   0.574   0.594   0.554   0.546   0.562   0.551   0.549   0.525   0.510   0.539   0.543   0.528   0.564
    33.55    0.512   0.476   0.492   0.516   0.516   0.532   0.555   0.521   0.524   0.517   0.554   0.561   0.553   0.580   0.567   0.582   0.572   0.556   0.574   0.535   0.546   0.519   0.566   0.563   0.557   0.543   0.547   0.541   0.540   0.529   0.493   0.519   0.515   0.527   0.580
    28.90    0.472   0.459   0.483   0.510   0.524   0.538   0.563   0.546   0.554   0.552   0.513   0.517   0.552   0.537   0.540   0.593   0.609   0.584   0.563   0.529   0.540   0.532   0.551   0.524   0.552   0.564   0.519   0.524   0.545   0.518   0.507   0.497   0.519   0.535   0.585
    24.25    0.471   0.442   0.486   0.477   0.533   0.551   0.562   0.558   0.517   0.555   0.507   0.532   0.540   0.516   0.534   0.582   0.582   0.591   0.567   0.568   0.545   0.538   0.577   0.554   0.560   0.556   0.518   0.552   0.525   0.527   0.487   0.518   0.509   0.535   0.546
    19.60    0.454   0.455   0.504   0.478   0.529   0.547   0.550   0.499   0.526   0.520   0.505   0.509   0.523   0.540   0.556   0.551   0.574   0.525   0.569   0.557   0.550   0.545   0.587   0.533   0.528   0.529   0.539   0.540   0.533   0.510   0.513   0.488   0.517   0.536   0.562
    14.95    0.477   0.503   0.504   0.500   0.530   0.538   0.536   0.529   0.491   0.502   0.500   0.527   0.507   0.514   0.491   0.531   0.540   0.535   0.563   0.576   0.553   0.555   0.531   0.548   0.528   0.552   0.553   0.525   0.523   0.535   0.519   0.524   0.553   0.581   0.612
    10.30    0.516   0.491   0.518   0.543   0.517   0.514   0.519   0.499   0.490   0.500   0.486   0.548   0.495   0.483   0.477   0.515   0.513   0.480   0.521   0.545   0.550   0.564   0.537   0.509   0.542   0.568   0.545   0.543   0.534   0.525   0.545   0.571   0.576   0.576   0.586
     5.65    0.521   0.518   0.512   0.528   0.507   0.497   0.462   0.449   0.484   0.516   0.534   0.543   0.520   0.489   0.471   0.471   0.484   0.513   0.512   0.522   0.537   0.546   0.511   0.503   0.547   0.552   0.558   0.547   0.564   0.557   0.539   0.592   0.567   0.562   0.575
     1.00    0.505   0.516   0.504   0.513   0.498   0.469   0.434   0.456   0.458   0.486   0.498   0.488   0.528   0.494   0.467   0.466   0.471   0.515   0.482   0.492   0.477   0.509   0.493   0.516   0.513   0.543   0.555   0.580   0.547   0.539   0.544   0.588   0.537   0.552   0.562

   Height   Standard deviation at grid points for the v component:
   168.40    0.359   0.354   0.369   0.367   0.350   0.360   0.354   0.348   0.364   0.364   0.360   0.365   0.368   0.383   0.369   0.366   0.398   0.381   0.379   0.359   0.345   0.344   0.343   0.355   0.355   0.360   0.367   0.372   0.370   0.350   0.380   0.370   0.393   0.412   0.385
   163.75    0.329   0.350   0.370   0.370   0.362   0.357   0.334   0.341   0.354   0.348   0.366   0.361   0.365   0.373   0.371   0.373   0.385   0.387   0.373   0.339   0.335   0.344   0.325   0.331   0.346   0.341   0.338   0.341   0.345   0.354   0.365   0.373   0.385   0.401   0.402
   159.10    0.333   0.350   0.359   0.374   0.350   0.348   0.326   0.346   0.349   0.360   0.374   0.355   0.340   0.363   0.371   0.366   0.369   0.367   0.343   0.342   0.347   0.333   0.340   0.341   0.357   0.353   0.355   0.350   0.348   0.358   0.354   0.380   0.384   0.399   0.400
   154.45    0.318   0.340   0.360   0.340   0.349   0.349   0.345   0.352   0.363   0.373   0.373   0.365   0.363   0.372   0.380   0.378   0.368   0.346   0.343   0.360   0.352   0.343   0.340   0.345   0.347   0.353   0.358   0.341   0.333   0.350   0.354   0.375   0.399   0.385   0.412
   149.80    0.325   0.317   0.352   0.340   0.350   0.341   0.349   0.336   0.313   0.350   0.355   0.352   0.367   0.373   0.364   0.375   0.360   0.357   0.348   0.350   0.360   0.358   0.360   0.348   0.354   0.369   0.377   0.354   0.353   0.358   0.366   0.396   0.404   0.404   0.397
   145.15    0.323   0.345   0.344   0.346   0.337   0.339   0.326   0.338   0.336   0.344   0.330   0.340   0.341   0.344   0.359   0.366   0.347   0.344   0.367   0.334   0.329   0.367   0.359   0.364   0.353   0.354   0.378   0.355   0.352   0.374   0.385   0.386   0.394   0.410   0.416
   140.50    0.342   0.339   0.339   0.320   0.342   0.325   0.329   0.337   0.337   0.337   0.336   0.331   0.336   0.336   0.321   0.336   0.354   0.363   0.357   0.346   0.331   0.359   0.381   0.369   0.348   0.356   0.372   0.352   0.356   0.371   0.380   0.385   0.376   0.383   0.387
   135.85    0.365   0.362   0.340   0.323   0.317   0.298   0.305   0.321   0.338   0.331   0.338   0.331   0.350   0.329   0.326   0.322   0.343   0.340   0.331   0.342   0.342   0.359   0.374   0.361   0.376   0.375   0.373   0.379   0.373   0.374   0.367   0.350   0.368   0.364   0.367
   131.20    0.353   0.356   0.362   0.338   0.314   0.309   0.309   0.316   0.336   0.326   0.318   0.331   0.344   0.340   0.329   0.341   0.354   0.332   0.330   0.346   0.354   0.369   0.381   0.390   0.378   0.367   0.364   0.393   0.382   0.380   0.366   0.353   0.348   0.359   0.346
   126.55    0.344   0.354   0.353   0.336   0.313   0.322   0.331   0.329   0.316   0.328   0.310   0.333   0.352   0.366   0.352   0.344   0.354   0.340   0.327   0.348   0.359   0.371   0.367   0.385   0.355   0.362   0.385   0.403   0.394   0.369   0.384   0.362   0.347   0.335   0.337
   121.90    0.344   0.362   0.367   0.344   0.337   0.344   0.335   0.322   0.323   0.319   0.323   0.328   0.328   0.355   0.358   0.333   0.346   0.352   0.364   0.388   0.349   0.358   0.366   0.360   0.360   0.358   0.376   0.377   0.392   0.388   0.390   0.341   0.346   0.343   0.358
   117.25    0.343   0.357   0.378   0.371   0.353   0.337   0.340   0.329   0.336   0.319   0.343   0.357   0.364   0.350   0.343   0.351   0.363   0.364   0.376   0.382   0.352   0.361   0.361   0.375   0.375   0.367   0.388   0.367   0.377   0.384   0.368   0.350   0.353   0.351   0.355
   112.60    0.354   0.377   0.376   0.373   0.335   0.324   0.324   0.319   0.325   0.334   0.348   0.349   0.349   0.355   0.340   0.327   0.354   0.372   0.367   0.371   0.364   0.357   0.368   0.368   0.396   0.380   0.404   0.395   0.379   0.376   0.358   0.348   0.358   0.356   0.362
   107.95    0.348   0.361   0.375   0.362   0.348   0.339   0.337   0.326   0.338   0.334   0.348   0.346   0.350   0.349   0.356   0.328   0.360   0.344   0.359   0.370   0.359   0.341   0.358   0.378   0.408   0.392   0.403   0.397   0.373   0.384   0.363   0.387   0.360   0.373   0.369
   103.30    0.348   0.346   0.348   0.357   0.346   0.333   0.320   0.326   0.346   0.352   0.348   0.341   0.318   0.341   0.343   0.342   0.351   0.380   0.373   0.383   0.371   0.360   0.373   0.388   0.400   0.428   0.421   0.427   0.420   0.397   0.395   0.407   0.383   0.366   0.343
    98.65    0.368   0.339   0.340   0.337   0.334   0.333   0.318   0.344   0.335   0.330   0.327   0.322   0.324   0.318   0.346   0.349   0.367   0.361   0.355   0.364   0.367   0.373   0.397   0.405   0.413   0.432   0.425   0.423   0.425   0.397   0.389   0.393   0.357   0.358   0.350
    94.00    0.371   0.352   0.373   0.346   0.325   0.317   0.318   0.330   0.308   0.308   0.329   0.325   0.343   0.339   0.336   0.352   0.351   0.348   0.364   0.341   0.354   0.373   0.394   0.391   0.405   0.420   0.418   0.411   0.404   0.368   0.372   0.365   0.353   0.361   0.351
    89.35    0.374   0.374   0.349   0.337   0.329   0.316   0.321   0.319   0.312   0.301   0.310   0.320   0.323   0.315   0.336   0.351   0.338   0.329   0.347   0.345   0.355   0.362   0.364   0.376   0.379   0.411   0.416   0.411   0.409   0.378   0.389   0.367   0.348   0.353   0.372
    84.70    0.378   0.384   0.346   0.335   0.325   0.307   0.305   0.314   0.303   0.283   0.286   0.325   0.336   0.331   0.350   0.344   0.345   0.348   0.353   0.338   0.354   0.360   0.366   0.352   0.375   0.380   0.391   0.392   0.402   0.379   0.355   0.351   0.345   0.342   0.344
    80.05    0.363   0.355   0.346   0.323   0.322   0.308   0.296   0.301   0.308   0.281   0.293   0.297   0.321   0.342   0.343   0.345   0.346   0.346   0.350   0.332   0.340   0.341   0.350   0.346   0.341   0.359   0.378   0.369   0.368   0.376   0.353   0.357   0.341   0.353   0.338
    75.40    0.372   0.357   0.326   0.318   0.322   0.323   0.300   0.306   0.300   0.307   0.317   0.306   0.313   0.311   0.330   0.340   0.324   0.323   0.336   0.348   0.347   0.345   0.349   0.337   0.338   0.342   0.377   0.381   0.368   0.382   0.352   0.348   0.346   0.350   0.347
    70.75    0.354   0.350   0.333   0.317   0.320   0.309   0.292   0.289   0.297   0.329   0.329   0.321   0.300   0.322   0.324   0.322   0.324   0.315   0.335   0.361   0.362   0.357   0.358   0.349   0.353   0.364   0.377   0.364   0.359   0.364   0.334   0.343   0.342   0.360   0.343
    66.10    0.350   0.339   0.334   0.310   0.317   0.315   0.297   0.291   0.303   0.324   0.317   0.321   0.314   0.323   0.333   0.313   0.335   0.335   0.330   0.343   0.359   0.348   0.343   0.341   0.359   0.348   0.348   0.343   0.324   0.338   0.344   0.337   0.361   0.363   0.350
    61.45    0.358   0.336   0.317   0.316   0.317   0.333   0.327   0.308   0.314   0.332   0.314   0.312   0.310   0.328   0.336   0.321   0.323   0.334   0.331   0.318   0.350   0.351   0.347   0.336   0.335   0.335   0.335   0.325   0.340   0.346   0.343   0.340   0.354   0.361   0.358
    56.80    0.357   0.343   0.340   0.354   0.333   0.346   0.331   0.325   0.322   0.339   0.314   0.317   0.314   0.336   0.335   0.316   0.319   0.322   0.329   0.337   0.361   0.372   0.375   0.349   0.346   0.341   0.337   0.315   0.329   0.332   0.313   0.337   0.342   0.344   0.359
    52.15    0.341   0.340   0.357   0.353   0.344   0.345   0.345   0.317   0.310   0.324   0.308   0.307   0.304   0.320   0.322   0.311   0.321   0.327   0.342   0.349   0.368   0.366   0.349   0.351   0.348   0.346   0.343   0.325   0.325   0.324   0.324   0.313   0.331   0.340   0.343
    47.50    0.325   0.326   0.343   0.346   0.349   0.348   0.330   0.317   0.330   0.326   0.308   0.315   0.317   0.321   0.351   0.346   0.336   0.334   0.338   0.326   0.351   0.362   0.343   0.337   0.349   0.350   0.346   0.334   0.350   0.354   0.341   0.332   0.333   0.327   0.342
    42.85    0.334   0.319   0.334   0.337   0.338   0.341   0.353   0.338   0.321   0.321   0.314   0.317   0.352   0.343   0.359   0.344   0.330   0.339   0.329   0.332   0.343   0.363   0.348   0.341   0.346   0.327   0.320   0.324   0.343   0.347   0.343   0.363   0.338   0.325   0.326
    38.20    0.328   0.324   0.327   0.336   0.323   0.348   0.350   0.356   0.325   0.318   0.323   0.338   0.358   0.355   0.375   0.352   0.339   0.336   0.341   0.332   0.333   0.350   0.351   0.342   0.323   0.340   0.322   0.316   0.328   0.344   0.352   0.346   0.351   0.341   0.335
    33.55    0.329   0.329   0.324   0.333   0.329   0.342   0.335   0.339   0.337   0.332   0.334   0.346   0.341   0.336   0.337   0.357   0.351   0.350   0.321   0.338   0.336   0.338   0.327   0.323   0.322   0.336   0.332   0.352   0.338   0.357   0.336   0.337   0.343   0.332   0.345
    28.90    0.327   0.331   0.327   0.336   0.328   0.330   0.335   0.334   0.329   0.333   0.329   0.341   0.334   0.329   0.330   0.342   0.343   0.349   0.349   0.338   0.359   0.338   0.335   0.333   0.328   0.325   0.347   0.357   0.360   0.379   0.362   0.348   0.351   0.348   0.336
    24.25    0.318   0.328   0.326   0.335   0.325   0.330   0.346   0.345   0.341   0.325   0.321   0.320   0.330   0.336   0.336   0.339   0.316   0.331   0.346   0.348   0.338   0.348   0.331   0.341   0.342   0.333   0.348   0.358   0.363   0.377   0.356   0.351   0.357   0.373   0.347
    19.60    0.318   0.326   0.321   0.337   0.353   0.338   0.356   0.356   0.350   0.344   0.346   0.322   0.316   0.321   0.323   0.334   0.319   0.320   0.348   0.358   0.348   0.337   0.346   0.341   0.339   0.320   0.356   0.381   0.366   0.361   0.358   0.346   0.367   0.361   0.346
    14.95    0.329   0.336   0.327   0.333   0.353   0.362   0.361   0.384   0.376   0.360   0.328   0.324   0.331   0.326   0.328   0.338   0.339   0.327   0.348   0.363   0.354   0.350   0.352   0.341   0.328   0.314   0.337   0.357   0.370   0.365   0.385   0.379   0.379   0.380   0.366
    10.30    0.339   0.338   0.324   0.322   0.343   0.369   0.372   0.379   0.365   0.340   0.327   0.312   0.328   0.324   0.319   0.338   0.332   0.335   0.337   0.354   0.346   0.348   0.327   0.336   0.334   0.329   0.350   0.357   0.364   0.370   0.395   0.363   0.369   0.363   0.354
     5.65    0.335   0.347   0.334   0.331   0.345   0.378   0.370   0.374   0.357   0.351   0.316   0.314   0.318   0.328   0.346   0.337   0.347   0.344   0.354   0.335   0.354   0.340   0.336   0.328   0.330   0.333   0.338   0.342   0.369   0.359   0.380   0.383   0.363   0.334   0.343
     1.00    0.342   0.344   0.352   0.346   0.364   0.367   0.347   0.358   0.347   0.341   0.333   0.327   0.335   0.318   0.337   0.352   0.342   0.350   0.346   0.339   0.348   0.336   0.335   0.337   0.341   0.320   0.348   0.353   0.361   0.365   0.352   0.368   0.353   0.341   0.329

   Height   Standard deviation at grid points for the w component:
   168.40    0.241   0.235   0.231   0.227   0.220   0.227   0.222   0.229   0.232   0.232   0.232   0.238   0.245   0.250   0.257   0.261   0.246   0.249   0.247   0.244   0.234   0.245   0.246   0.254   0.250   0.238   0.247   0.252   0.255   0.245   0.242   0.239   0.236   0.235   0.235
   163.75    0.227   0.238   0.236   0.226   0.227   0.233   0.231   0.245   0.232   0.235   0.231   0.236   0.242   0.251   0.259   0.263   0.256   0.258   0.252   0.250   0.251   0.252   0.247   0.250   0.252   0.249   0.254   0.254   0.250   0.242   0.246   0.237   0.238   0.249   0.240
   159.10    0.225   0.227   0.233   0.230   0.227   0.237   0.242   0.249   0.244   0.239   0.232   0.230   0.238   0.243   0.256   0.263   0.260   0.260   0.260   0.257   0.253   0.247   0.254   0.258   0.252   0.260   0.260   0.249   0.254   0.247   0.246   0.253   0.243   0.242   0.242
   154.45    0.225   0.222   0.229   0.224   0.227   0.237   0.241   0.240   0.241   0.242   0.235   0.240   0.230   0.241   0.254   0.262   0.260   0.258   0.270   0.260   0.268   0.261   0.260   0.265   0.249   0.253   0.256   0.249   0.257   0.244   0.246   0.247   0.238   0.240   0.248
   149.80    0.222   0.221   0.224   0.220   0.230   0.236   0.244   0.242   0.243   0.235   0.232   0.236   0.236   0.231   0.247   0.251   0.252   0.262   0.261   0.263   0.263   0.268   0.263   0.257   0.256   0.255   0.254   0.250   0.241   0.247   0.244   0.253   0.243   0.246   0.235
   145.15    0.222   0.225   0.225   0.222   0.237   0.236   0.231   0.231   0.240   0.234   0.230   0.233   0.239   0.234   0.240   0.252   0.253   0.262   0.253   0.263   0.253   0.264   0.259   0.261   0.261   0.247   0.256   0.240   0.237   0.242   0.258   0.258   0.243   0.246   0.249
   140.50    0.227   0.224   0.230   0.244   0.242   0.240   0.235   0.237   0.237   0.234   0.230   0.230   0.237   0.233   0.234   0.241   0.254   0.251   0.258   0.255   0.260   0.259   0.255   0.258   0.262   0.252   0.238   0.246   0.245   0.237   0.242   0.244   0.247   0.244   0.249
   135.85    0.226   0.230   0.229   0.237   0.240   0.237   0.235   0.230   0.235   0.229   0.231   0.227   0.231   0.222   0.238   0.245   0.257   0.246   0.253   0.259   0.257   0.249   0.250   0.257   0.257   0.251   0.248   0.254   0.255   0.239   0.236   0.238   0.241   0.243   0.245
   131.20    0.228   0.235   0.238   0.236   0.239   0.240   0.233   0.229   0.231   0.240   0.240   0.242   0.236   0.234   0.235   0.243   0.252   0.242   0.244   0.246   0.242   0.240   0.240   0.249   0.253   0.253   0.253   0.266   0.274   0.254   0.241   0.239   0.249   0.248   0.250
   126.55    0.234   0.232   0.228   0.230   0.231   0.231   0.229   0.228   0.229   0.234   0.246   0.235   0.238   0.238   0.230   0.238   0.244   0.243   0.234   0.235   0.240   0.243   0.242   0.249   0.255   0.260   0.263   0.269   0.271   0.258   0.256   0.243   0.251   0.247   0.236
   121.90    0.234   0.228   0.224   0.224   0.228   0.224   0.223   0.230   0.239   0.244   0.234   0.232   0.233   0.232   0.234   0.237   0.237   0.232   0.232   0.244   0.240   0.241   0.244   0.251   0.263   0.266   0.265   0.264   0.271   0.257   0.249   0.249   0.253   0.243   0.239
   117.25    0.234   0.235   0.229   0.221   0.224   0.225   0.227   0.229   0.227   0.235   0.236   0.231   0.222   0.226   0.230   0.237   0.234   0.237   0.234   0.247   0.247   0.245   0.251   0.257   0.259   0.265   0.256   0.263   0.264   0.256   0.256   0.247   0.254   0.244   0.243
   112.60    0.239   0.237   0.233   0.229   0.226   0.231   0.231   0.236   0.239   0.239   0.227   0.226   0.227   0.226   0.224   0.230   0.230   0.231   0.238   0.240   0.238   0.246   0.245   0.250   0.253   0.252   0.245   0.258   0.248   0.253   0.256   0.248   0.244   0.245   0.249
   107.95    0.226   0.232   0.236   0.239   0.232   0.232   0.243   0.247   0.243   0.232   0.227   0.222   0.221   0.227   0.223   0.222   0.224   0.222   0.228   0.230   0.232   0.235   0.240   0.246   0.253   0.239   0.246   0.246   0.252   0.251   0.250   0.254   0.246   0.244   0.244
   103.30    0.227   0.235   0.242   0.242   0.241   0.235   0.239   0.245   0.241   0.229   0.230   0.222   0.215   0.224   0.220   0.221   0.226   0.231   0.230   0.234   0.235   0.233   0.238   0.241   0.244   0.244   0.245   0.240   0.240   0.242   0.251   0.254   0.248   0.236   0.242
    98.65    0.230   0.239   0.234   0.238   0.238   0.233   0.240   0.243   0.244   0.230   0.222   0.225   0.223   0.227   0.222   0.223   0.226   0.230   0.228   0.232   0.239   0.239   0.240   0.242   0.253   0.254   0.249   0.245   0.236   0.235   0.239   0.242   0.244   0.238   0.231
    94.00    0.234   0.241   0.239   0.235   0.230   0.225   0.236   0.246   0.234   0.231   0.234   0.220   0.226   0.229   0.226   0.222   0.226   0.235   0.232   0.225   0.235   0.242   0.240   0.238   0.248   0.249   0.245   0.239   0.237   0.237   0.240   0.231   0.229   0.229   0.221
    89.35    0.233   0.232   0.239   0.236   0.235   0.229   0.233   0.237   0.241   0.235   0.229   0.215   0.229   0.228   0.223   0.220   0.231   0.231   0.230   0.229   0.239   0.241   0.238   0.243   0.249   0.253   0.238   0.236   0.238   0.246   0.239   0.234   0.221   0.223   0.226
    84.70    0.230   0.223   0.232   0.235   0.234   0.236   0.234   0.233   0.230   0.226   0.222   0.222   0.227   0.225   0.229   0.226   0.229   0.230   0.233   0.241   0.241   0.240   0.240   0.253   0.254   0.243   0.232   0.236   0.238   0.243   0.227   0.222   0.217   0.223   0.234
    80.05    0.231   0.227   0.237   0.235   0.240   0.234   0.230   0.224   0.226   0.225   0.216   0.225   0.217   0.219   0.225   0.232   0.227   0.219   0.230   0.238   0.236   0.241   0.244   0.249   0.247   0.239   0.234   0.229   0.229   0.238   0.221   0.222   0.221   0.222   0.227
    75.40    0.231   0.234   0.236   0.233   0.237   0.233   0.231   0.218   0.213   0.218   0.218   0.229   0.222   0.224   0.234   0.238   0.230   0.233   0.231   0.236   0.236   0.240   0.241   0.239   0.233   0.238   0.236   0.231   0.234   0.236   0.232   0.228   0.230   0.229   0.227
    70.75    0.230   0.233   0.237   0.236   0.235   0.235   0.222   0.218   0.220   0.218   0.220   0.223   0.222   0.230   0.224   0.224   0.231   0.227   0.233   0.233   0.236   0.237   0.237   0.242   0.233   0.234   0.227   0.228   0.236   0.237   0.239   0.237   0.230   0.232   0.223
    66.10    0.229   0.235   0.233   0.239   0.239   0.231   0.225   0.222   0.225   0.224   0.217   0.211   0.221   0.224   0.223   0.228   0.235   0.236   0.226   0.235   0.230   0.242   0.236   0.235   0.235   0.233   0.222   0.228   0.229   0.232   0.236   0.230   0.233   0.225   0.226
    61.45    0.232   0.236   0.233   0.244   0.238   0.233   0.228   0.225   0.227   0.226   0.229   0.217   0.223   0.228   0.221   0.220   0.228   0.235   0.235   0.232   0.231   0.237   0.233   0.232   0.231   0.224   0.231   0.223   0.221   0.226   0.226   0.236   0.233   0.225   0.223
    56.80    0.235   0.234   0.231   0.235   0.231   0.230   0.232   0.234   0.228   0.228   0.235   0.225   0.223   0.221   0.217   0.228   0.233   0.238   0.234   0.227   0.236   0.234   0.225   0.226   0.232   0.228   0.225   0.222   0.221   0.226   0.220   0.217   0.226   0.225   0.222
    52.15    0.244   0.235   0.235   0.235   0.228   0.226   0.232   0.237   0.233   0.236   0.231   0.228   0.220   0.227   0.230   0.227   0.228   0.230   0.227   0.231   0.225   0.225   0.227   0.226   0.235   0.235   0.226   0.225   0.224   0.221   0.220   0.219   0.224   0.224   0.227
    47.50    0.240   0.243   0.228   0.230   0.231   0.223   0.229   0.231   0.232   0.238   0.239   0.220   0.230   0.231   0.234   0.228   0.226   0.235   0.227   0.230   0.230   0.221   0.223   0.223   0.227   0.228   0.218   0.219   0.228   0.231   0.229   0.231   0.224   0.232   0.231
    42.85    0.237   0.236   0.237   0.237   0.236   0.226   0.223   0.230   0.229   0.238   0.241   0.241   0.230   0.238   0.241   0.240   0.228   0.227   0.233   0.228   0.228   0.223   0.223   0.228   0.220   0.220   0.218   0.223   0.228   0.224   0.225   0.222   0.226   0.226   0.229
    38.20    0.239   0.233   0.230   0.232   0.229   0.236   0.229   0.235   0.226   0.237   0.236   0.236   0.235   0.244   0.247   0.239   0.231   0.229   0.239   0.222   0.232   0.233   0.237   0.225   0.227   0.225   0.228   0.230   0.229   0.228   0.221   0.229   0.232   0.235   0.242
    33.55    0.236   0.233   0.232   0.231   0.235   0.236   0.226   0.225   0.231   0.232   0.234   0.244   0.242   0.244   0.240   0.232   0.227   0.231   0.235   0.232   0.232   0.230   0.236   0.228   0.232   0.227   0.225   0.230   0.229   0.226   0.232   0.234   0.232   0.230   0.251
    28.90    0.250   0.242   0.239   0.235   0.229   0.230   0.223   0.227   0.230   0.235   0.231   0.233   0.232   0.241   0.233   0.218   0.218   0.222   0.232   0.235   0.231   0.227   0.231   0.234   0.236   0.234   0.229   0.232   0.224   0.224   0.230   0.238   0.243   0.242   0.247
    24.25    0.242   0.252   0.243   0.242   0.240   0.230   0.237   0.234   0.237   0.241   0.229   0.234   0.235   0.231   0.234   0.228   0.225   0.228   0.233   0.234   0.226   0.228   0.235   0.231   0.230   0.240   0.232   0.240   0.238   0.233   0.236   0.235   0.247   0.251   0.244
    19.60    0.243   0.250   0.246   0.241   0.241   0.236   0.242   0.231   0.234   0.239   0.236   0.238   0.235   0.238   0.235   0.230   0.229   0.229   0.229   0.229   0.236   0.224   0.233   0.221   0.228   0.231   0.225   0.233   0.237   0.242   0.248   0.249   0.247   0.242   0.242
    14.95    0.238   0.241   0.238   0.244   0.241   0.234   0.235   0.238   0.234   0.232   0.242   0.243   0.239   0.240   0.241   0.235   0.232   0.227   0.234   0.231   0.239   0.239   0.234   0.230   0.234   0.225   0.227   0.226   0.236   0.246   0.250   0.246   0.237   0.242   0.242
    10.30    0.229   0.238   0.240   0.236   0.240   0.242   0.240   0.235   0.234   0.240   0.242   0.247   0.238   0.233   0.236   0.243   0.242   0.229   0.230   0.224   0.235   0.234   0.233   0.236   0.229   0.230   0.232   0.233   0.237   0.241   0.240   0.243   0.236   0.242   0.239
     5.65    0.236   0.233   0.244   0.239   0.237   0.239   0.239   0.240   0.232   0.236   0.229   0.235   0.240   0.234   0.238   0.228   0.230   0.233   0.233   0.232   0.233   0.234   0.233   0.241   0.231   0.233   0.236   0.229   0.232   0.228   0.228   0.229   0.233   0.231   0.242
     1.00    0.236   0.244   0.249   0.246   0.237   0.240   0.241   0.239   0.229   0.226   0.232   0.240   0.239   0.232   0.237   0.235   0.230   0.234   0.238   0.240   0.234   0.231   0.232   0.237   0.238   0.233   0.234   0.227   0.230   0.230   0.227   0.231   0.232   0.235   0.237

   Mean standard deviation across all grid points:
      u component:    0.528 m/s
      v component:    0.348 m/s
      w component:    0.236 m/s


U-component (X) statistics from the interpolated hub point:

   Mean =   9.9913 m/s
   TI   =   5.0268 %


Processing complete.  5376.6 CPU seconds used.
