
This summary file was generated by TurbSim (from OpenFAST-v3.5.3) on 20-Apr-2025 at 11:25:16.


Runtime Options:

**********  Random seed #1
    RANLUX  Type of random number generator
         F  Output binary HH turbulence parameters?
         F  Output formatted turbulence parameters?
         F  Output AeroDyn HH files?
         T  Output AeroDyn FF files?
         F  Output BLADED FF files?
         F  Output tower data?
         F  Output HAWC FF files?
         F  Output formatted FF files?
         T  Output coherent turbulence time step file?
 0 -  NONE  IEC turbulence models scaled to exact specified standard deviation


Turbine/Model Specifications:

        37  Vertical grid-point matrix dimension
        35  Horizontal grid-point matrix dimension
     0.250  Time step [seconds]
   900.000  Analysis time [seconds]
   900.000  Usable output time [seconds]
    89.350  Hub height [m]
   167.400  Grid height [m]
   158.100  Grid width [m]
     0.000  Vertical flow angle [degrees]
     0.000  Horizontal flow angle [degrees]


Meteorological Boundary Conditions:

    TIMESR  User-input time series spectral model
       N/A  IEC standard
       N/A  IEC turbulence characteristic
       N/A  IEC turbulence type
       N/A  IEC Extreme Turbulence Model (ETM) "c" parameter [m/s]
       PL   Wind profile type
    90.000  Reference height [m]
    10.000  Reference wind speed [m/s]
       N/A  Jet height [m]
     0.120  Power law exponent
     0.030  Surface roughness length [m]


Non-IEC Meteorological Boundary Conditions:

    45.000  Site latitude [degrees]
     0.050  Gradient Richardson number
     0.480  Friction or shear velocity [m/s]
       N/A  Mixing layer depth [m]
       N/A  Mean hub u'w' Reynolds stress
       N/A  Mean hub u'v' Reynolds stress
       N/A  Mean hub v'w' Reynolds stress


Spatial Coherence Models:

       IEC  u-component coherence model
       IEC  v-component coherence model
       IEC  w-component coherence model
(   12.000, 0.353E-03)  u-component coherence parameters
(   12.000, 0.353E-03)  v-component coherence parameters
(   12.000, 0.353E-03)  w-component coherence parameters
       N/A  Coherence exponent


Coherent Turbulence Scaling Parameters:

.\EventData
            Name of the path containing the coherent turbulence data files
       dns  Type of coherent turbulence data files
     1.000  Disturbance scale (ratio of wave height to rotor diameter)
     0.500  Fractional location of tower centerline from right
     0.500  Fractional location of hub height from the bottom of the dataset
    30.000  Minimum start time for coherent structures [seconds]


Profiles from User-Defined Time-Series Input:

  Height   Wind Speed   Horizontal Angle   Vertical Angle
   (m)        (m/s)          (deg)              (deg)    
  ------   ----------   ----------------   --------------
   94.00      10.00          -0.63               -0.00


You have requested that the following file(s) be generated:

   /kfs3/scratch/agupta/Projects/RL_Incubator/FinalRuns_Veer/Seed4/./FFSim_Seed4/Cond00_v10.0_PL0.12_TI5.0/Case3_wdirp06/Seed_3/TurbSim/HighT11.bts (AeroDyn/TurbSim full-field wind file)


Turbulence Simulation Scaling Parameter Summary:

   Turbulence model used                            =  User-input time series
   Gradient Richardson number                       =    0.050
   Monin-Obukhov (M-O) z/L parameter                =    0.067
   Monin-Obukhov (M-O) length scale                 = 1340.250 m
   Mean wind speed at hub height                    =    9.991 m/s

   Wind profile type                                =  Power law
   Power law exponent                               =    0.120
   Mean shear across rotor disk                     =    0.019 (m/s)/m
   Assumed rotor diameter                           =  158.100 m
   Surface roughness length                         =    0.030 m

   Nyquist frequency of turbulent wind field        =    2.000 Hz

   Number of time steps in the FFT                  =     3600
   Number of time steps output                      =     3600
   Number of points simulated                       =     1296


Mean Flow Angles:

   Vertical   =   0.0 degrees
   Horizontal =   0.0 degrees

Mean Wind Speed Profile:

   Height    Wind Speed   Horizontal Angle  Vertical Angle  U-comp (X)   V-comp (Y)   W-comp (Z)
     (m)        (m/s)         (degrees)       (degrees)       (m/s)        (m/s)        (m/s)   
   ------    ----------   ----------------  --------------  ----------   ----------   ----------
    168.4       10.78            0.00            0.00         10.78         0.00         0.00
    163.7       10.74            0.00            0.00         10.74         0.00         0.00
    159.1       10.71            0.00            0.00         10.71         0.00         0.00
    154.4       10.67            0.00            0.00         10.67         0.00         0.00
    149.8       10.63            0.00            0.00         10.63         0.00         0.00
    145.1       10.59            0.00            0.00         10.59         0.00         0.00
    140.5       10.55            0.00            0.00         10.55         0.00         0.00
    135.8       10.51            0.00            0.00         10.51         0.00         0.00
    131.2       10.46            0.00            0.00         10.46         0.00         0.00
    126.5       10.42            0.00            0.00         10.42         0.00         0.00
    121.9       10.37            0.00            0.00         10.37         0.00         0.00
    117.2       10.32            0.00            0.00         10.32         0.00         0.00
    112.6       10.27            0.00            0.00         10.27         0.00         0.00
    107.9       10.22            0.00            0.00         10.22         0.00         0.00
    103.3       10.17            0.00            0.00         10.17         0.00         0.00
     98.6       10.11            0.00            0.00         10.11         0.00         0.00
     94.0       10.05            0.00            0.00         10.05         0.00         0.00
     89.3        9.99            0.00            0.00          9.99         0.00         0.00
     84.7        9.93            0.00            0.00          9.93         0.00         0.00
     80.0        9.86            0.00            0.00          9.86         0.00         0.00
     75.4        9.79            0.00            0.00          9.79         0.00         0.00
     70.7        9.72            0.00            0.00          9.72         0.00         0.00
     66.1        9.64            0.00            0.00          9.64         0.00         0.00
     61.4        9.55            0.00            0.00          9.55         0.00         0.00
     56.8        9.46            0.00            0.00          9.46         0.00         0.00
     52.1        9.37            0.00            0.00          9.37         0.00         0.00
     47.5        9.26            0.00            0.00          9.26         0.00         0.00
     42.8        9.15            0.00            0.00          9.15         0.00         0.00
     38.2        9.02            0.00            0.00          9.02         0.00         0.00
     33.5        8.88            0.00            0.00          8.88         0.00         0.00
     28.9        8.73            0.00            0.00          8.73         0.00         0.00
     24.2        8.54            0.00            0.00          8.54         0.00         0.00
     19.6        8.33            0.00            0.00          8.33         0.00         0.00
     14.9        8.06            0.00            0.00          8.06         0.00         0.00
     10.3        7.71            0.00            0.00          7.71         0.00         0.00
      5.6        7.17            0.00            0.00          7.17         0.00         0.00
      1.0        5.83            0.00            0.00          5.83         0.00         0.00


Harvested Random Seeds after Generation of the Random Numbers:

     65026800 K 1
            0 K 2


Hub-Height Simulated Turbulence Statistical Summary:

   Type of Wind        Min (m/s)   Mean (m/s)    Max (m/s)  Sigma (m/s)       TI (%)
   ----------------    ---------   ----------    ---------  -----------       ------
   Longitudinal (u)         8.55         9.99        11.69        0.484        4.847
   Lateral (v)             -1.16         0.00         1.11        0.373        3.736
   Vertical (w)            -0.76        -0.00         0.85        0.243        2.428
   U component              8.55         9.99        11.69        0.484        4.847
   V component             -1.16         0.00         1.11        0.373        3.736
   W component             -0.76        -0.00         0.85        0.243        2.428
   Horizontal (U&V)         8.55        10.00        11.70        0.485        4.846
   Total                    8.55        10.00        11.70        0.485        4.845

                       Min Reynolds     Mean Reynolds    Max Reynolds    Correlation
   Product             Stress (m/s)^2   Stress (m/s)^2   Stress (m/s)^2  Coefficient
   ----------------    --------------   --------------   --------------  -----------
   u'w'                     -0.638             0.009             0.740         0.073
   u'v'                     -1.426            -0.036             0.792        -0.202
   v'w'                     -0.501             0.014             0.548         0.156


   Friction Velocity (Ustar)  =      0.092 m/s
   Maximum Instantaneous TKE  =      1.686 (m/s)^2
   Maximum Instantaneous CTKE =      0.723 (m/s)^2


Grid Point Variance Summary:

   Y-coord  -79.05  -74.40  -69.75  -65.10  -60.45  -55.80  -51.15  -46.50  -41.85  -37.20  -32.55  -27.90  -23.25  -18.60  -13.95   -9.30   -4.65    0.00    4.65    9.30   13.95   18.60   23.25   27.90   32.55   37.20   41.85   46.50   51.15   55.80   60.45   65.10   69.75   74.40   79.05

   Height   Standard deviation at grid points for the u component:
   168.40    0.469   0.475   0.472   0.518   0.531   0.529   0.540   0.516   0.510   0.490   0.513   0.516   0.512   0.497   0.512   0.489   0.529   0.513   0.500   0.502   0.498   0.526   0.547   0.560   0.517   0.510   0.522   0.536   0.555   0.513   0.515   0.508   0.525   0.527   0.537
   163.75    0.467   0.511   0.519   0.555   0.518   0.547   0.513   0.500   0.522   0.527   0.527   0.520   0.532   0.515   0.482   0.504   0.537   0.520   0.484   0.498   0.557   0.565   0.564   0.534   0.545   0.515   0.517   0.524   0.554   0.544   0.516   0.504   0.523   0.510   0.512
   159.10    0.497   0.492   0.529   0.545   0.533   0.564   0.528   0.508   0.516   0.524   0.527   0.515   0.572   0.548   0.565   0.547   0.542   0.495   0.490   0.522   0.545   0.567   0.581   0.587   0.523   0.521   0.524   0.509   0.538   0.515   0.522   0.524   0.500   0.516   0.496
   154.45    0.500   0.511   0.528   0.561   0.562   0.575   0.552   0.544   0.495   0.500   0.516   0.521   0.569   0.560   0.560   0.556   0.535   0.514   0.484   0.495   0.538   0.549   0.590   0.548   0.506   0.473   0.479   0.512   0.499   0.509   0.543   0.541   0.497   0.514   0.496
   149.80    0.523   0.541   0.503   0.538   0.556   0.533   0.534   0.510   0.481   0.487   0.510   0.492   0.528   0.552   0.550   0.550   0.552   0.507   0.472   0.470   0.498   0.518   0.549   0.555   0.524   0.480   0.473   0.477   0.479   0.506   0.521   0.531   0.485   0.496   0.503
   145.15    0.551   0.522   0.505   0.524   0.560   0.572   0.545   0.526   0.530   0.506   0.498   0.483   0.516   0.537   0.523   0.529   0.490   0.510   0.470   0.439   0.504   0.518   0.534   0.521   0.507   0.486   0.485   0.456   0.432   0.489   0.514   0.533   0.492   0.475   0.478
   140.50    0.560   0.555   0.568   0.521   0.540   0.518   0.548   0.550   0.539   0.497   0.459   0.442   0.462   0.496   0.491   0.486   0.483   0.515   0.487   0.484   0.519   0.524   0.536   0.485   0.478   0.471   0.462   0.445   0.430   0.478   0.469   0.493   0.477   0.463   0.453
   135.85    0.577   0.553   0.559   0.535   0.509   0.488   0.541   0.522   0.497   0.478   0.473   0.456   0.463   0.483   0.504   0.470   0.478   0.527   0.496   0.494   0.504   0.542   0.545   0.481   0.475   0.458   0.464   0.445   0.449   0.482   0.505   0.498   0.471   0.456   0.464
   131.20    0.547   0.529   0.532   0.475   0.489   0.507   0.528   0.506   0.481   0.466   0.445   0.469   0.460   0.475   0.497   0.510   0.507   0.490   0.487   0.501   0.490   0.519   0.541   0.519   0.495   0.490   0.465   0.477   0.452   0.465   0.476   0.476   0.456   0.440   0.466
   126.55    0.506   0.499   0.506   0.462   0.482   0.493   0.517   0.508   0.534   0.480   0.455   0.467   0.494   0.485   0.478   0.480   0.475   0.457   0.486   0.528   0.527   0.529   0.554   0.560   0.502   0.516   0.483   0.456   0.477   0.489   0.471   0.487   0.451   0.441   0.468
   121.90    0.529   0.527   0.539   0.477   0.491   0.487   0.494   0.522   0.528   0.489   0.468   0.483   0.496   0.508   0.502   0.478   0.444   0.436   0.474   0.491   0.522   0.525   0.553   0.540   0.527   0.512   0.496   0.482   0.488   0.479   0.468   0.493   0.489   0.458   0.462
   117.25    0.548   0.566   0.527   0.486   0.483   0.486   0.499   0.498   0.513   0.470   0.482   0.456   0.516   0.478   0.496   0.492   0.445   0.454   0.500   0.522   0.533   0.520   0.510   0.529   0.551   0.537   0.487   0.529   0.516   0.498   0.487   0.500   0.476   0.437   0.446
   112.60    0.527   0.541   0.515   0.507   0.488   0.475   0.491   0.501   0.496   0.477   0.491   0.463   0.492   0.503   0.485   0.463   0.448   0.472   0.504   0.541   0.524   0.482   0.510   0.513   0.523   0.521   0.523   0.508   0.520   0.531   0.517   0.514   0.485   0.451   0.456
   107.95    0.520   0.532   0.523   0.503   0.489   0.505   0.504   0.488   0.491   0.489   0.462   0.441   0.484   0.467   0.496   0.452   0.493   0.515   0.535   0.537   0.535   0.516   0.513   0.543   0.552   0.551   0.533   0.546   0.550   0.536   0.532   0.502   0.486   0.450   0.436
   103.30    0.493   0.514   0.480   0.507   0.486   0.485   0.474   0.468   0.467   0.461   0.442   0.473   0.479   0.495   0.464   0.446   0.477   0.498   0.529   0.527   0.537   0.517   0.518   0.522   0.559   0.556   0.531   0.520   0.535   0.534   0.475   0.496   0.475   0.445   0.465
    98.65    0.511   0.496   0.519   0.511   0.492   0.464   0.496   0.471   0.486   0.467   0.460   0.475   0.482   0.468   0.456   0.460   0.475   0.501   0.523   0.521   0.536   0.543   0.557   0.528   0.523   0.540   0.540   0.517   0.539   0.515   0.455   0.482   0.505   0.458   0.474
    94.00    0.520   0.523   0.557   0.526   0.499   0.482   0.512   0.510   0.498   0.469   0.472   0.497   0.488   0.463   0.449   0.459   0.452   0.487   0.468   0.521   0.572   0.578   0.542   0.536   0.541   0.529   0.536   0.540   0.546   0.516   0.488   0.457   0.501   0.495   0.507
    89.35    0.533   0.535   0.539   0.527   0.521   0.487   0.524   0.497   0.502   0.497   0.487   0.490   0.469   0.442   0.420   0.446   0.465   0.484   0.452   0.509   0.563   0.585   0.552   0.508   0.502   0.517   0.535   0.523   0.510   0.552   0.519   0.496   0.480   0.512   0.522
    84.70    0.524   0.522   0.509   0.515   0.508   0.515   0.509   0.503   0.499   0.503   0.475   0.447   0.453   0.435   0.449   0.453   0.478   0.467   0.467   0.484   0.533   0.569   0.536   0.511   0.503   0.481   0.502   0.519   0.510   0.546   0.519   0.513   0.513   0.501   0.503
    80.05    0.525   0.538   0.516   0.530   0.519   0.515   0.498   0.505   0.514   0.490   0.473   0.441   0.426   0.439   0.431   0.424   0.464   0.492   0.494   0.492   0.509   0.540   0.523   0.517   0.497   0.491   0.502   0.512   0.514   0.552   0.518   0.504   0.527   0.523   0.509
    75.40    0.536   0.521   0.550   0.524   0.516   0.513   0.499   0.502   0.510   0.480   0.468   0.434   0.420   0.448   0.461   0.425   0.482   0.500   0.517   0.503   0.507   0.504   0.515   0.482   0.481   0.512   0.519   0.529   0.509   0.522   0.529   0.526   0.533   0.509   0.519
    70.75    0.536   0.530   0.552   0.576   0.550   0.504   0.499   0.482   0.494   0.467   0.462   0.434   0.446   0.467   0.474   0.463   0.462   0.494   0.518   0.519   0.513   0.505   0.536   0.494   0.494   0.496   0.495   0.494   0.505   0.525   0.541   0.529   0.514   0.508   0.499
    66.10    0.518   0.561   0.585   0.576   0.574   0.553   0.502   0.502   0.489   0.469   0.437   0.429   0.462   0.493   0.494   0.464   0.455   0.465   0.496   0.513   0.533   0.543   0.543   0.506   0.467   0.497   0.486   0.491   0.495   0.506   0.505   0.519   0.517   0.507   0.518
    61.45    0.550   0.531   0.574   0.567   0.567   0.530   0.495   0.485   0.475   0.450   0.444   0.430   0.447   0.492   0.504   0.509   0.478   0.529   0.512   0.539   0.530   0.521   0.521   0.524   0.495   0.506   0.510   0.493   0.461   0.492   0.499   0.512   0.542   0.522   0.484
    56.80    0.565   0.537   0.584   0.611   0.557   0.545   0.480   0.482   0.491   0.466   0.476   0.472   0.454   0.447   0.490   0.497   0.514   0.501   0.515   0.520   0.523   0.532   0.501   0.513   0.500   0.517   0.513   0.482   0.482   0.466   0.478   0.522   0.528   0.508   0.489
    52.15    0.540   0.541   0.573   0.578   0.553   0.532   0.501   0.519   0.492   0.510   0.480   0.470   0.474   0.467   0.475   0.483   0.524   0.490   0.520   0.518   0.520   0.533   0.515   0.496   0.485   0.516   0.497   0.498   0.492   0.505   0.492   0.491   0.507   0.490   0.497
    47.50    0.524   0.519   0.532   0.553   0.538   0.524   0.548   0.545   0.539   0.503   0.500   0.482   0.464   0.455   0.462   0.479   0.505   0.505   0.549   0.512   0.512   0.511   0.481   0.478   0.476   0.489   0.486   0.465   0.461   0.477   0.512   0.508   0.487   0.490   0.501
    42.85    0.572   0.537   0.562   0.554   0.550   0.542   0.559   0.555   0.541   0.542   0.520   0.492   0.454   0.442   0.476   0.499   0.519   0.529   0.535   0.539   0.503   0.496   0.479   0.471   0.480   0.467   0.439   0.467   0.479   0.485   0.491   0.479   0.476   0.495   0.482
    38.20    0.571   0.545   0.564   0.557   0.581   0.584   0.585   0.564   0.554   0.561   0.543   0.520   0.487   0.470   0.475   0.497   0.524   0.517   0.555   0.511   0.522   0.500   0.487   0.497   0.488   0.458   0.467   0.475   0.494   0.483   0.508   0.471   0.498   0.502   0.468
    33.55    0.582   0.563   0.563   0.563   0.581   0.590   0.605   0.601   0.547   0.576   0.551   0.533   0.519   0.517   0.518   0.494   0.525   0.535   0.562   0.530   0.524   0.499   0.497   0.493   0.475   0.493   0.497   0.471   0.522   0.528   0.525   0.517   0.524   0.507   0.509
    28.90    0.581   0.560   0.558   0.583   0.569   0.600   0.614   0.606   0.602   0.591   0.554   0.546   0.556   0.563   0.525   0.491   0.536   0.537   0.572   0.559   0.513   0.497   0.485   0.484   0.501   0.518   0.527   0.522   0.549   0.532   0.545   0.555   0.515   0.517   0.521
    24.25    0.598   0.568   0.577   0.572   0.631   0.586   0.593   0.622   0.611   0.607   0.572   0.588   0.556   0.552   0.552   0.528   0.522   0.531   0.554   0.558   0.524   0.507   0.492   0.495   0.514   0.544   0.543   0.567   0.567   0.539   0.555   0.548   0.522   0.533   0.531
    19.60    0.581   0.575   0.587   0.604   0.601   0.600   0.606   0.602   0.616   0.614   0.587   0.569   0.550   0.564   0.563   0.550   0.550   0.564   0.562   0.535   0.535   0.532   0.520   0.504   0.542   0.574   0.570   0.579   0.586   0.544   0.540   0.558   0.534   0.530   0.540
    14.95    0.607   0.597   0.609   0.590   0.614   0.633   0.604   0.612   0.593   0.583   0.578   0.579   0.585   0.554   0.535   0.548   0.538   0.561   0.560   0.542   0.550   0.561   0.546   0.491   0.533   0.577   0.577   0.587   0.598   0.567   0.559   0.546   0.549   0.525   0.508
    10.30    0.575   0.573   0.566   0.606   0.645   0.646   0.633   0.615   0.580   0.556   0.581   0.584   0.569   0.566   0.535   0.511   0.542   0.548   0.554   0.534   0.531   0.547   0.514   0.518   0.532   0.574   0.584   0.610   0.602   0.595   0.563   0.531   0.519   0.508   0.519
     5.65    0.574   0.557   0.538   0.570   0.603   0.600   0.603   0.568   0.567   0.564   0.562   0.574   0.541   0.530   0.506   0.528   0.509   0.550   0.561   0.525   0.499   0.529   0.512   0.526   0.560   0.563   0.579   0.595   0.584   0.555   0.542   0.524   0.519   0.517   0.546
     1.00    0.559   0.569   0.554   0.554   0.558   0.564   0.573   0.544   0.561   0.533   0.552   0.563   0.523   0.523   0.469   0.485   0.520   0.552   0.534   0.496   0.498   0.505   0.488   0.510   0.545   0.531   0.558   0.558   0.540   0.535   0.539   0.523   0.529   0.495   0.501

   Height   Standard deviation at grid points for the v component:
   168.40    0.347   0.358   0.339   0.346   0.340   0.357   0.362   0.351   0.350   0.368   0.352   0.337   0.361   0.378   0.385   0.377   0.371   0.362   0.380   0.368   0.363   0.358   0.378   0.373   0.370   0.380   0.380   0.387   0.364   0.387   0.366   0.368   0.355   0.365   0.368
   163.75    0.334   0.325   0.328   0.331   0.329   0.354   0.351   0.342   0.339   0.355   0.363   0.345   0.363   0.371   0.369   0.379   0.371   0.366   0.382   0.379   0.381   0.367   0.370   0.370   0.376   0.372   0.363   0.382   0.394   0.393   0.371   0.357   0.361   0.355   0.374
   159.10    0.327   0.322   0.335   0.338   0.328   0.346   0.359   0.343   0.347   0.358   0.368   0.362   0.362   0.381   0.386   0.390   0.401   0.380   0.384   0.379   0.397   0.374   0.379   0.379   0.380   0.364   0.382   0.404   0.400   0.400   0.373   0.356   0.360   0.367   0.353
   154.45    0.335   0.336   0.362   0.352   0.345   0.342   0.368   0.370   0.354   0.370   0.362   0.355   0.366   0.379   0.379   0.394   0.390   0.384   0.394   0.380   0.381   0.386   0.377   0.381   0.366   0.376   0.389   0.409   0.414   0.401   0.370   0.376   0.376   0.372   0.370
   149.80    0.353   0.352   0.355   0.376   0.371   0.390   0.375   0.371   0.367   0.373   0.360   0.362   0.372   0.373   0.384   0.378   0.389   0.404   0.389   0.386   0.400   0.383   0.384   0.373   0.376   0.372   0.379   0.398   0.403   0.396   0.385   0.365   0.359   0.375   0.392
   145.15    0.367   0.361   0.366   0.355   0.381   0.378   0.383   0.377   0.387   0.378   0.383   0.378   0.364   0.363   0.376   0.396   0.401   0.395   0.387   0.377   0.390   0.391   0.376   0.378   0.368   0.369   0.383   0.400   0.402   0.375   0.367   0.355   0.349   0.369   0.367
   140.50    0.383   0.372   0.385   0.389   0.374   0.372   0.384   0.386   0.391   0.407   0.395   0.404   0.386   0.385   0.376   0.385   0.393   0.390   0.371   0.386   0.392   0.356   0.356   0.359   0.369   0.373   0.391   0.389   0.383   0.373   0.379   0.379   0.340   0.360   0.348
   135.85    0.378   0.387   0.403   0.388   0.382   0.375   0.371   0.371   0.379   0.395   0.402   0.399   0.389   0.384   0.389   0.379   0.393   0.375   0.362   0.378   0.368   0.363   0.351   0.351   0.363   0.380   0.378   0.363   0.364   0.361   0.367   0.364   0.359   0.341   0.328
   131.20    0.361   0.393   0.386   0.393   0.374   0.365   0.372   0.366   0.366   0.383   0.396   0.393   0.409   0.393   0.400   0.390   0.385   0.366   0.371   0.366   0.364   0.359   0.350   0.354   0.353   0.357   0.359   0.357   0.348   0.352   0.348   0.361   0.348   0.331   0.354
   126.55    0.369   0.375   0.386   0.378   0.360   0.342   0.346   0.352   0.353   0.370   0.385   0.386   0.385   0.379   0.391   0.383   0.365   0.369   0.348   0.361   0.348   0.350   0.347   0.347   0.350   0.352   0.366   0.364   0.375   0.356   0.352   0.353   0.347   0.343   0.367
   121.90    0.377   0.345   0.359   0.366   0.352   0.336   0.326   0.339   0.331   0.356   0.362   0.371   0.382   0.389   0.379   0.372   0.373   0.358   0.353   0.351   0.341   0.337   0.338   0.337   0.342   0.347   0.349   0.343   0.382   0.369   0.352   0.358   0.365   0.351   0.362
   117.25    0.371   0.363   0.369   0.375   0.355   0.349   0.329   0.331   0.342   0.342   0.363   0.358   0.366   0.392   0.372   0.366   0.349   0.334   0.343   0.347   0.330   0.327   0.336   0.348   0.338   0.337   0.358   0.346   0.367   0.372   0.367   0.355   0.366   0.347   0.334
   112.60    0.366   0.369   0.361   0.400   0.368   0.341   0.332   0.327   0.335   0.349   0.354   0.343   0.364   0.368   0.359   0.350   0.318   0.316   0.325   0.329   0.332   0.330   0.318   0.331   0.354   0.342   0.356   0.358   0.372   0.370   0.367   0.358   0.356   0.352   0.346
   107.95    0.376   0.370   0.374   0.391   0.373   0.358   0.342   0.343   0.345   0.359   0.347   0.355   0.361   0.361   0.350   0.345   0.325   0.331   0.336   0.321   0.332   0.323   0.315   0.332   0.352   0.361   0.352   0.364   0.389   0.388   0.373   0.370   0.369   0.372   0.362
   103.30    0.387   0.379   0.371   0.388   0.367   0.359   0.343   0.340   0.338   0.353   0.349   0.379   0.371   0.356   0.349   0.351   0.321   0.330   0.338   0.335   0.323   0.321   0.320   0.332   0.337   0.345   0.361   0.377   0.384   0.384   0.386   0.395   0.373   0.376   0.363
    98.65    0.408   0.397   0.387   0.387   0.364   0.366   0.348   0.353   0.343   0.350   0.375   0.381   0.370   0.371   0.361   0.339   0.344   0.353   0.369   0.347   0.337   0.329   0.330   0.331   0.336   0.341   0.341   0.367   0.390   0.370   0.373   0.389   0.379   0.373   0.368
    94.00    0.398   0.401   0.379   0.368   0.372   0.378   0.364   0.362   0.344   0.366   0.376   0.373   0.387   0.368   0.375   0.357   0.362   0.372   0.376   0.371   0.360   0.360   0.355   0.340   0.332   0.349   0.355   0.378   0.378   0.369   0.389   0.386   0.383   0.380   0.387
    89.35    0.375   0.377   0.366   0.358   0.366   0.372   0.357   0.353   0.355   0.353   0.362   0.367   0.373   0.385   0.369   0.364   0.378   0.373   0.377   0.361   0.361   0.350   0.361   0.354   0.343   0.367   0.377   0.387   0.371   0.365   0.388   0.390   0.392   0.389   0.381
    84.70    0.354   0.372   0.349   0.328   0.360   0.360   0.371   0.369   0.373   0.352   0.365   0.374   0.379   0.389   0.377   0.373   0.384   0.373   0.381   0.367   0.357   0.360   0.355   0.356   0.355   0.360   0.376   0.380   0.368   0.383   0.368   0.383   0.393   0.379   0.391
    80.05    0.373   0.370   0.352   0.339   0.342   0.350   0.356   0.351   0.365   0.357   0.351   0.362   0.369   0.394   0.390   0.381   0.368   0.357   0.364   0.355   0.356   0.371   0.368   0.378   0.355   0.377   0.373   0.383   0.383   0.373   0.368   0.384   0.375   0.395   0.389
    75.40    0.360   0.365   0.364   0.353   0.352   0.344   0.346   0.347   0.360   0.363   0.360   0.349   0.372   0.388   0.388   0.381   0.369   0.343   0.350   0.372   0.370   0.372   0.376   0.367   0.366   0.354   0.374   0.377   0.391   0.386   0.380   0.379   0.370   0.365   0.377
    70.75    0.356   0.364   0.350   0.350   0.353   0.344   0.340   0.351   0.357   0.362   0.348   0.362   0.380   0.403   0.396   0.373   0.365   0.355   0.364   0.376   0.384   0.372   0.357   0.350   0.370   0.348   0.367   0.379   0.401   0.380   0.377   0.375   0.367   0.374   0.384
    66.10    0.351   0.345   0.357   0.365   0.365   0.367   0.364   0.364   0.368   0.364   0.361   0.363   0.378   0.380   0.391   0.393   0.385   0.366   0.373   0.379   0.397   0.370   0.361   0.376   0.361   0.377   0.371   0.383   0.396   0.381   0.364   0.349   0.356   0.362   0.370
    61.45    0.349   0.353   0.360   0.369   0.362   0.366   0.364   0.361   0.373   0.377   0.377   0.384   0.386   0.388   0.410   0.392   0.382   0.376   0.379   0.396   0.388   0.399   0.390   0.381   0.366   0.376   0.372   0.384   0.406   0.383   0.359   0.364   0.367   0.358   0.368
    56.80    0.360   0.366   0.367   0.364   0.358   0.367   0.374   0.367   0.371   0.390   0.377   0.393   0.384   0.391   0.399   0.378   0.375   0.375   0.374   0.384   0.393   0.401   0.385   0.383   0.383   0.390   0.376   0.386   0.376   0.376   0.376   0.376   0.375   0.376   0.377
    52.15    0.365   0.366   0.376   0.372   0.378   0.359   0.344   0.353   0.375   0.386   0.395   0.374   0.385   0.377   0.383   0.388   0.379   0.389   0.382   0.383   0.381   0.381   0.379   0.378   0.390   0.390   0.380   0.380   0.374   0.357   0.365   0.383   0.373   0.377   0.367
    47.50    0.383   0.375   0.375   0.377   0.376   0.366   0.366   0.366   0.371   0.369   0.396   0.389   0.404   0.386   0.373   0.386   0.385   0.392   0.367   0.373   0.373   0.377   0.379   0.389   0.379   0.385   0.396   0.377   0.373   0.374   0.376   0.354   0.374   0.388   0.369
    42.85    0.389   0.391   0.378   0.399   0.374   0.383   0.370   0.381   0.396   0.387   0.398   0.386   0.400   0.404   0.381   0.387   0.407   0.389   0.391   0.389   0.385   0.387   0.394   0.388   0.370   0.371   0.383   0.388   0.379   0.371   0.368   0.357   0.361   0.377   0.361
    38.20    0.398   0.385   0.384   0.395   0.379   0.388   0.387   0.383   0.392   0.406   0.401   0.383   0.396   0.403   0.400   0.385   0.388   0.407   0.410   0.396   0.386   0.361   0.378   0.380   0.361   0.360   0.367   0.394   0.369   0.376   0.368   0.360   0.358   0.381   0.384
    33.55    0.385   0.381   0.393   0.393   0.392   0.381   0.400   0.388   0.409   0.410   0.412   0.409   0.414   0.407   0.403   0.394   0.416   0.412   0.417   0.413   0.389   0.370   0.372   0.382   0.360   0.355   0.393   0.389   0.354   0.351   0.361   0.365   0.377   0.375   0.382
    28.90    0.373   0.380   0.383   0.395   0.391   0.401   0.371   0.382   0.387   0.408   0.409   0.427   0.415   0.418   0.401   0.404   0.402   0.409   0.403   0.393   0.393   0.377   0.378   0.378   0.366   0.369   0.386   0.401   0.363   0.358   0.363   0.368   0.366   0.371   0.373
    24.25    0.360   0.384   0.385   0.391   0.389   0.408   0.392   0.390   0.401   0.411   0.411   0.403   0.412   0.405   0.383   0.405   0.401   0.387   0.388   0.396   0.389   0.377   0.390   0.386   0.375   0.380   0.385   0.387   0.381   0.372   0.379   0.366   0.375   0.385   0.389
    19.60    0.375   0.386   0.384   0.362   0.380   0.383   0.390   0.382   0.406   0.381   0.402   0.398   0.391   0.390   0.404   0.387   0.401   0.389   0.389   0.378   0.383   0.370   0.379   0.377   0.382   0.383   0.390   0.373   0.374   0.379   0.379   0.380   0.365   0.373   0.387
    14.95    0.368   0.384   0.374   0.372   0.372   0.389   0.396   0.397   0.404   0.378   0.388   0.399   0.393   0.386   0.383   0.391   0.404   0.389   0.377   0.374   0.379   0.360   0.352   0.358   0.366   0.382   0.361   0.368   0.359   0.365   0.372   0.363   0.351   0.363   0.379
    10.30    0.378   0.381   0.395   0.385   0.389   0.386   0.394   0.400   0.392   0.382   0.380   0.387   0.397   0.387   0.383   0.390   0.411   0.382   0.367   0.380   0.385   0.362   0.346   0.352   0.373   0.358   0.344   0.368   0.362   0.365   0.368   0.350   0.374   0.374   0.384
     5.65    0.379   0.389   0.385   0.386   0.385   0.403   0.389   0.372   0.381   0.379   0.381   0.388   0.387   0.370   0.376   0.379   0.392   0.394   0.382   0.384   0.372   0.371   0.366   0.360   0.368   0.363   0.360   0.367   0.371   0.371   0.364   0.374   0.388   0.394   0.389
     1.00    0.379   0.370   0.376   0.375   0.374   0.385   0.364   0.365   0.370   0.367   0.377   0.387   0.377   0.384   0.383   0.366   0.359   0.372   0.372   0.377   0.369   0.367   0.370   0.368   0.362   0.369   0.380   0.375   0.395   0.395   0.386   0.400   0.401   0.406   0.400

   Height   Standard deviation at grid points for the w component:
   168.40    0.270   0.279   0.276   0.263   0.257   0.265   0.263   0.266   0.263   0.268   0.277   0.280   0.260   0.255   0.271   0.276   0.285   0.284   0.288   0.282   0.280   0.274   0.274   0.249   0.248   0.251   0.260   0.251   0.251   0.252   0.243   0.247   0.257   0.255   0.256
   163.75    0.260   0.275   0.258   0.256   0.254   0.259   0.261   0.272   0.262   0.268   0.266   0.283   0.263   0.261   0.271   0.267   0.284   0.282   0.271   0.269   0.265   0.259   0.262   0.260   0.247   0.249   0.254   0.254   0.252   0.245   0.250   0.258   0.267   0.262   0.263
   159.10    0.250   0.260   0.266   0.266   0.262   0.271   0.269   0.270   0.273   0.273   0.272   0.288   0.270   0.275   0.270   0.261   0.269   0.274   0.278   0.265   0.266   0.253   0.244   0.251   0.253   0.254   0.256   0.264   0.268   0.254   0.251   0.267   0.271   0.264   0.256
   154.45    0.245   0.260   0.264   0.258   0.263   0.275   0.273   0.267   0.265   0.270   0.277   0.284   0.267   0.255   0.263   0.260   0.253   0.260   0.267   0.264   0.263   0.251   0.251   0.251   0.261   0.250   0.258   0.265   0.263   0.263   0.259   0.267   0.273   0.260   0.253
   149.80    0.256   0.252   0.266   0.269   0.264   0.266   0.265   0.270   0.275   0.266   0.279   0.281   0.265   0.262   0.257   0.256   0.260   0.258   0.255   0.268   0.268   0.260   0.262   0.266   0.253   0.247   0.248   0.262   0.257   0.278   0.277   0.272   0.274   0.263   0.259
   145.15    0.268   0.254   0.270   0.276   0.264   0.264   0.259   0.262   0.257   0.269   0.277   0.274   0.272   0.263   0.259   0.262   0.268   0.274   0.267   0.273   0.266   0.266   0.272   0.256   0.253   0.247   0.249   0.258   0.259   0.264   0.264   0.267   0.262   0.261   0.265
   140.50    0.262   0.248   0.258   0.259   0.253   0.255   0.266   0.268   0.278   0.269   0.268   0.269   0.255   0.270   0.271   0.273   0.270   0.266   0.275   0.279   0.263   0.276   0.273   0.270   0.255   0.266   0.245   0.250   0.242   0.244   0.256   0.257   0.252   0.251   0.251
   135.85    0.253   0.255   0.253   0.265   0.246   0.250   0.269   0.271   0.274   0.275   0.258   0.275   0.270   0.269   0.273   0.278   0.267   0.274   0.282   0.267   0.268   0.272   0.265   0.270   0.265   0.264   0.248   0.250   0.238   0.240   0.252   0.248   0.245   0.250   0.241
   131.20    0.264   0.270   0.263   0.261   0.266   0.259   0.276   0.265   0.269   0.259   0.266   0.264   0.278   0.274   0.267   0.276   0.274   0.273   0.261   0.263   0.261   0.263   0.265   0.268   0.262   0.250   0.245   0.244   0.245   0.254   0.257   0.250   0.249   0.254   0.247
   126.55    0.270   0.265   0.263   0.265   0.259   0.260   0.258   0.271   0.269   0.259   0.252   0.261   0.266   0.269   0.267   0.268   0.268   0.262   0.260   0.255   0.260   0.248   0.264   0.265   0.260   0.254   0.250   0.255   0.243   0.246   0.241   0.240   0.239   0.250   0.250
   121.90    0.260   0.264   0.256   0.257   0.262   0.262   0.274   0.268   0.275   0.261   0.263   0.263   0.257   0.265   0.260   0.269   0.271   0.264   0.252   0.257   0.248   0.260   0.265   0.261   0.251   0.253   0.252   0.251   0.245   0.246   0.235   0.235   0.231   0.241   0.255
   117.25    0.260   0.263   0.256   0.265   0.276   0.278   0.280   0.279   0.273   0.261   0.252   0.253   0.252   0.255   0.259   0.253   0.255   0.253   0.251   0.255   0.261   0.254   0.248   0.245   0.258   0.255   0.242   0.249   0.258   0.249   0.232   0.232   0.236   0.235   0.253
   112.60    0.268   0.275   0.270   0.269   0.271   0.268   0.269   0.277   0.269   0.266   0.246   0.255   0.255   0.251   0.247   0.255   0.254   0.251   0.244   0.255   0.262   0.250   0.245   0.239   0.249   0.254   0.251   0.251   0.252   0.253   0.241   0.226   0.231   0.237   0.244
   107.95    0.278   0.281   0.284   0.274   0.273   0.276   0.270   0.270   0.271   0.249   0.243   0.246   0.236   0.237   0.244   0.251   0.257   0.253   0.240   0.247   0.248   0.250   0.243   0.241   0.244   0.246   0.256   0.246   0.242   0.246   0.231   0.232   0.241   0.239   0.242
   103.30    0.275   0.280   0.269   0.278   0.273   0.283   0.266   0.270   0.271   0.249   0.241   0.236   0.236   0.245   0.246   0.251   0.255   0.249   0.241   0.241   0.242   0.236   0.238   0.243   0.234   0.238   0.242   0.239   0.241   0.244   0.234   0.245   0.250   0.248   0.237
    98.65    0.274   0.273   0.276   0.282   0.275   0.281   0.274   0.273   0.262   0.253   0.252   0.249   0.234   0.249   0.249   0.240   0.246   0.254   0.242   0.233   0.227   0.224   0.236   0.237   0.239   0.238   0.238   0.239   0.237   0.238   0.239   0.235   0.244   0.238   0.234
    94.00    0.284   0.277   0.273   0.265   0.277   0.276   0.277   0.275   0.271   0.260   0.249   0.239   0.238   0.247   0.245   0.247   0.241   0.244   0.240   0.238   0.230   0.231   0.233   0.246   0.255   0.251   0.243   0.232   0.237   0.236   0.235   0.230   0.228   0.226   0.220
    89.35    0.295   0.293   0.276   0.263   0.273   0.280   0.267   0.279   0.272   0.260   0.256   0.245   0.253   0.249   0.240   0.238   0.253   0.243   0.245   0.243   0.231   0.242   0.249   0.239   0.243   0.241   0.243   0.232   0.229   0.232   0.231   0.241   0.231   0.225   0.232
    84.70    0.293   0.296   0.284   0.284   0.280   0.269   0.271   0.276   0.272   0.265   0.261   0.251   0.246   0.250   0.241   0.245   0.253   0.236   0.237   0.241   0.238   0.237   0.244   0.249   0.240   0.249   0.239   0.233   0.233   0.234   0.234   0.231   0.233   0.235   0.237
    80.05    0.288   0.288   0.280   0.279   0.280   0.279   0.265   0.261   0.266   0.263   0.263   0.255   0.253   0.239   0.239   0.253   0.259   0.244   0.235   0.231   0.231   0.227   0.237   0.245   0.247   0.245   0.243   0.233   0.236   0.235   0.226   0.234   0.235   0.237   0.236
    75.40    0.288   0.273   0.289   0.292   0.280   0.290   0.270   0.268   0.265   0.251   0.250   0.245   0.248   0.249   0.259   0.262   0.258   0.254   0.238   0.238   0.228   0.230   0.245   0.242   0.239   0.235   0.233   0.235   0.229   0.238   0.232   0.220   0.235   0.233   0.236
    70.75    0.283   0.292   0.281   0.290   0.282   0.284   0.276   0.258   0.262   0.249   0.247   0.241   0.242   0.236   0.256   0.266   0.254   0.242   0.245   0.235   0.224   0.225   0.237   0.238   0.240   0.238   0.239   0.242   0.239   0.241   0.237   0.224   0.238   0.240   0.230
    66.10    0.280   0.278   0.278   0.286   0.283   0.280   0.260   0.259   0.250   0.259   0.242   0.241   0.245   0.255   0.255   0.245   0.236   0.245   0.242   0.238   0.231   0.234   0.240   0.239   0.237   0.230   0.236   0.241   0.250   0.253   0.239   0.233   0.240   0.237   0.238
    61.45    0.288   0.279   0.273   0.277   0.280   0.281   0.274   0.266   0.256   0.258   0.241   0.227   0.237   0.247   0.246   0.237   0.238   0.234   0.239   0.239   0.232   0.232   0.235   0.228   0.219   0.223   0.235   0.232   0.235   0.239   0.246   0.245   0.238   0.239   0.238
    56.80    0.275   0.274   0.272   0.275   0.270   0.272   0.276   0.271   0.267   0.257   0.242   0.240   0.237   0.241   0.236   0.227   0.230   0.229   0.240   0.231   0.234   0.231   0.225   0.222   0.225   0.228   0.228   0.235   0.230   0.235   0.242   0.235   0.232   0.231   0.238
    52.15    0.268   0.264   0.262   0.254   0.261   0.276   0.276   0.271   0.264   0.253   0.240   0.246   0.243   0.242   0.236   0.229   0.224   0.222   0.226   0.227   0.229   0.233   0.228   0.221   0.230   0.236   0.241   0.237   0.239   0.231   0.243   0.234   0.231   0.235   0.240
    47.50    0.263   0.260   0.253   0.243   0.242   0.256   0.254   0.264   0.257   0.248   0.242   0.233   0.246   0.250   0.234   0.232   0.224   0.216   0.222   0.225   0.233   0.236   0.233   0.225   0.235   0.235   0.236   0.239   0.236   0.241   0.237   0.226   0.228   0.230   0.237
    42.85    0.250   0.243   0.248   0.245   0.258   0.242   0.244   0.260   0.250   0.239   0.232   0.239   0.246   0.245   0.227   0.230   0.226   0.231   0.230   0.235   0.226   0.237   0.234   0.236   0.236   0.240   0.238   0.244   0.231   0.236   0.237   0.233   0.232   0.226   0.238
    38.20    0.252   0.246   0.243   0.243   0.244   0.241   0.255   0.251   0.243   0.237   0.234   0.234   0.231   0.237   0.229   0.237   0.234   0.229   0.232   0.228   0.236   0.241   0.248   0.244   0.244   0.247   0.239   0.238   0.237   0.242   0.239   0.234   0.229   0.239   0.246
    33.55    0.249   0.239   0.244   0.241   0.244   0.242   0.257   0.251   0.237   0.243   0.238   0.231   0.235   0.239   0.232   0.230   0.234   0.228   0.233   0.231   0.244   0.250   0.244   0.249   0.253   0.249   0.239   0.240   0.228   0.238   0.239   0.247   0.239   0.239   0.245
    28.90    0.251   0.252   0.257   0.259   0.246   0.247   0.247   0.247   0.246   0.245   0.246   0.238   0.238   0.234   0.236   0.229   0.229   0.221   0.236   0.230   0.242   0.256   0.252   0.257   0.248   0.252   0.251   0.238   0.239   0.246   0.248   0.240   0.237   0.236   0.238
    24.25    0.253   0.256   0.255   0.260   0.249   0.244   0.245   0.251   0.256   0.250   0.244   0.237   0.236   0.239   0.238   0.236   0.220   0.216   0.233   0.237   0.239   0.250   0.250   0.254   0.243   0.257   0.243   0.245   0.235   0.242   0.244   0.243   0.230   0.241   0.243
    19.60    0.250   0.248   0.252   0.256   0.267   0.254   0.252   0.252   0.256   0.253   0.236   0.239   0.242   0.232   0.233   0.231   0.230   0.232   0.232   0.250   0.237   0.246   0.248   0.248   0.242   0.248   0.256   0.252   0.250   0.246   0.248   0.247   0.239   0.237   0.240
    14.95    0.253   0.260   0.263   0.261   0.260   0.251   0.253   0.249   0.258   0.251   0.239   0.246   0.241   0.234   0.234   0.229   0.221   0.231   0.236   0.239   0.245   0.239   0.249   0.242   0.245   0.249   0.249   0.254   0.258   0.243   0.247   0.246   0.234   0.247   0.242
    10.30    0.258   0.256   0.254   0.256   0.266   0.267   0.256   0.260   0.254   0.248   0.255   0.236   0.236   0.237   0.234   0.228   0.230   0.228   0.241   0.235   0.238   0.244   0.244   0.235   0.244   0.251   0.251   0.243   0.246   0.246   0.237   0.240   0.244   0.236   0.250
     5.65    0.257   0.245   0.251   0.261   0.267   0.267   0.275   0.258   0.251   0.246   0.247   0.239   0.239   0.231   0.232   0.224   0.227   0.232   0.226   0.239   0.235   0.240   0.244   0.233   0.245   0.246   0.247   0.231   0.245   0.231   0.235   0.235   0.239   0.246   0.242
     1.00    0.246   0.248   0.250   0.259   0.267   0.260   0.257   0.259   0.248   0.238   0.242   0.232   0.234   0.230   0.231   0.235   0.232   0.233   0.237   0.242   0.244   0.250   0.244   0.249   0.244   0.246   0.239   0.240   0.235   0.240   0.233   0.239   0.249   0.244   0.244

   Mean standard deviation across all grid points:
      u component:    0.515 m/s
      v component:    0.372 m/s
      w component:    0.251 m/s


U-component (X) statistics from the interpolated hub point:

   Mean =   9.9913 m/s
   TI   =   4.8467 %


Processing complete.  5719.3 CPU seconds used.
