
This summary file was generated by TurbSim (from OpenFAST-v3.5.3) on 19-Apr-2025 at 20:50:52.


Runtime Options:

**********  Random seed #1
    RANLUX  Type of random number generator
         F  Output binary HH turbulence parameters?
         F  Output formatted turbulence parameters?
         F  Output AeroDyn HH files?
         T  Output AeroDyn FF files?
         F  Output BLADED FF files?
         F  Output tower data?
         F  Output HAWC FF files?
         F  Output formatted FF files?
         T  Output coherent turbulence time step file?
 0 -  NONE  IEC turbulence models scaled to exact specified standard deviation


Turbine/Model Specifications:

        39  Vertical grid-point matrix dimension
       193  Horizontal grid-point matrix dimension
     0.250  Time step [seconds]
   900.000  Analysis time [seconds]
   900.000  Usable output time [seconds]
   177.700  Hub height [m]
   353.400  Grid height [m]
  1785.600  Grid width [m]
     0.000  Vertical flow angle [degrees]
     0.000  Horizontal flow angle [degrees]


Meteorological Boundary Conditions:

    IECKAI  IEC Kaimal spectral model
         1  IEC standard: IEC 61400-1 Ed. 3: 2005
     4.000  Percent turbulence intensity, IEC 61400-1 Ed. 3: 2005
       NTM  IEC Normal Turbulence Model
       N/A  IEC Extreme Turbulence Model (ETM) "c" parameter [m/s]
       USR  Wind profile type
    90.000  Reference height [m]
       N/A  Reference wind speed [m/s]
       N/A  Jet height [m]
       N/A  Power law exponent
     0.030  Surface roughness length [m]


Non-IEC Meteorological Boundary Conditions:

       N/A  Site latitude [degrees]
       N/A  Gradient Richardson number
       N/A  Friction or shear velocity [m/s]
       N/A  Mixing layer depth [m]
       N/A  Mean hub u'w' Reynolds stress
       N/A  Mean hub u'v' Reynolds stress
       N/A  Mean hub v'w' Reynolds stress


Spatial Coherence Models:

       IEC  u-component coherence model
       IEC  v-component coherence model
       IEC  w-component coherence model
(   12.000, 0.353E-03)  u-component coherence parameters
(   12.000, 0.353E-03)  v-component coherence parameters
(   12.000, 0.353E-03)  w-component coherence parameters
       N/A  Coherence exponent


User-Defined Profiles:

  Height   Wind Speed   Horizontal Angle
   (m)        (m/s)          (deg)      
  ------   ----------   ----------------
  353.40      10.00         318.19
  334.80      10.00         321.14
  316.20      10.00         324.10
  297.60      10.00         327.05
  279.00      10.00         330.00
  260.40      10.00         332.95
  241.80      10.00         335.90
  223.20      10.00         338.86
  204.60      10.00         341.81
  186.00      10.00         344.76
  167.40      10.00         347.71
  148.80      10.00         350.67
  130.20      10.00         353.62
  111.60      10.00         356.57
   93.00      10.00         359.52
   74.40      10.00           2.48
   55.80      10.00           5.43
   37.20      10.00           8.38
   18.60      10.00          11.33
    0.00      10.00          14.29


You have requested that the following file(s) be generated:

   /kfs3/scratch/agupta/Projects/RL_Incubator/FinalRuns_Veer/Seed4/./FFSim_Seed4/Cond00_v10.0_PL0.12_TI4.0/Seed_2/Low.bts (AeroDyn/TurbSim full-field wind file)


Turbulence Simulation Scaling Parameter Summary:

   Turbulence model used                            =  IEC Kaimal
   Turbulence characteristic                        =  User-specified
   IEC standard                                     =  IEC 61400-1 Ed. 3: 2005
   Mean wind speed at hub height                    =   10.000 m/s
   Characteristic value of standard deviation       =    0.400 m/s
   Turbulence scale                                 =   42.000 m
   u-component integral scale                       =  340.200 m
   Coherency scale                                  =  340.200 m
   Characteristic value of hub turbulence intensity =    4.000%
   Gradient Richardson number                       =    0.000

   Wind profile type                                =  Linear interpolation of user-defined profile
   Equivalent power law exponent (upper rotor disk) =    0.000
   Mean shear across rotor disk                     =    0.000 (m/s)/m
   Assumed rotor diameter                           =  353.400 m
   Surface roughness length                         =    0.030 m

   Nyquist frequency of turbulent wind field        =    2.000 Hz

   Number of time steps in the FFT                  =     3600
   Number of time steps output                      =     3600
   Number of points simulated                       =     7527


Mean Flow Angles:

   Vertical   =   0.0 degrees
   Horizontal =   0.0 degrees

Mean Wind Speed Profile:

   Height    Wind Speed   Horizontal Angle  Vertical Angle  U-comp (X)   V-comp (Y)   W-comp (Z)
     (m)        (m/s)         (degrees)       (degrees)       (m/s)        (m/s)        (m/s)   
   ------    ----------   ----------------  --------------  ----------   ----------   ----------
    354.4       10.00          318.19            0.00          7.45        -6.67         0.00
    345.1       10.00          319.51            0.00          7.60        -6.49         0.00
    335.8       10.00          320.98            0.00          7.77        -6.30         0.00
    326.5       10.00          322.46            0.00          7.93        -6.09         0.00
    317.2       10.00          323.94            0.00          8.08        -5.89         0.00
    307.9       10.00          325.41            0.00          8.23        -5.68         0.00
    298.6       10.00          326.89            0.00          8.38        -5.46         0.00
    289.3       10.00          328.37            0.00          8.51        -5.25         0.00
    280.0       10.00          329.84            0.00          8.65        -5.02         0.00
    270.7       10.00          331.32            0.00          8.77        -4.80         0.00
    261.4       10.00          332.79            0.00          8.89        -4.57         0.00
    252.1       10.00          334.27            0.00          9.01        -4.34         0.00
    242.8       10.00          335.75            0.00          9.12        -4.11         0.00
    233.5       10.00          337.22            0.00          9.22        -3.87         0.00
    224.2       10.00          338.70            0.00          9.32        -3.63         0.00
    214.9       10.00          340.17            0.00          9.41        -3.39         0.00
    205.6       10.00          341.65            0.00          9.49        -3.15         0.00
    196.3       10.00          343.13            0.00          9.57        -2.90         0.00
    187.0       10.00          344.60            0.00          9.64        -2.66         0.00
    177.7       10.00          346.08            0.00          9.71        -2.41         0.00
    168.4       10.00          347.56            0.00          9.77        -2.15         0.00
    159.1       10.00          349.03            0.00          9.82        -1.90         0.00
    149.8       10.00          350.51            0.00          9.86        -1.65         0.00
    140.5       10.00          351.98            0.00          9.90        -1.39         0.00
    131.2       10.00          353.46            0.00          9.93        -1.14         0.00
    121.9       10.00          354.94            0.00          9.96        -0.88         0.00
    112.6       10.00          356.41            0.00          9.98        -0.63         0.00
    103.3       10.00          357.89            0.00          9.99        -0.37         0.00
     94.0       10.00          359.37            0.00         10.00        -0.11         0.00
     84.7       10.00          360.84            0.00         10.00         0.15         0.00
     75.4       10.00          362.32            0.00          9.99         0.40         0.00
     66.1       10.00            3.79            0.00          9.98         0.66         0.00
     56.8       10.00            5.27            0.00          9.96         0.92         0.00
     47.5       10.00            6.75            0.00          9.93         1.17         0.00
     38.2       10.00            8.22            0.00          9.90         1.43         0.00
     28.9       10.00            9.70            0.00          9.86         1.68         0.00
     19.6       10.00           11.17            0.00          9.81         1.94         0.00
     10.3       10.00           12.65            0.00          9.76         2.19         0.00
      1.0       10.00           14.13            0.00          9.70         2.44         0.00


Harvested Random Seeds after Generation of the Random Numbers:

    377667225 K 1
            0 K 2


Hub-Height Simulated Turbulence Statistical Summary:

   Type of Wind        Min (m/s)   Mean (m/s)    Max (m/s)  Sigma (m/s)       TI (%)
   ----------------    ---------   ----------    ---------  -----------       ------
   Longitudinal (u)         8.88        10.00        11.21        0.405        4.046
   Lateral (v)             -0.96         0.00         1.11        0.312        3.117
   Vertical (w)            -0.81        -0.00         0.71        0.197        1.971
   U component              8.60         9.71        10.90        0.396        4.083
   V component             -3.48        -2.41        -1.38        0.322        3.319
   W component             -0.81        -0.00         0.71        0.197        2.031
   Horizontal (U&V)         8.88        10.00        11.21        0.405        4.050
   Total                    8.88        10.01        11.21        0.405        4.047

                       Min Reynolds     Mean Reynolds    Max Reynolds    Correlation
   Product             Stress (m/s)^2   Stress (m/s)^2   Stress (m/s)^2  Coefficient
   ----------------    --------------   --------------   --------------  -----------
   u'w'                     -0.531            -0.000             0.539        -0.001
   u'v'                     -0.879            -0.006             0.543        -0.047
   v'w'                     -0.499            -0.004             0.352        -0.058


   Friction Velocity (Ustar)  =      0.009 m/s
   Maximum Instantaneous TKE  =      0.962 (m/s)^2
   Maximum Instantaneous CTKE =      0.503 (m/s)^2


Grid Point Variance Summary:

   Y-coord -892.80 -883.50 -874.20 -864.90 -855.60 -846.30 -837.00 -827.70 -818.40 -809.10 -799.80 -790.50 -781.20 -771.90 -762.60 -753.30 -744.00 -734.70 -725.40 -716.10 -706.80 -697.50 -688.20 -678.90 -669.60 -660.30 -651.00 -641.70 -632.40 -623.10 -613.80 -604.50 -595.20 -585.90 -576.60 -567.30 -558.00 -548.70 -539.40 -530.10 -520.80 -511.50 -502.20 -492.90 -483.60 -474.30 -465.00 -455.70 -446.40 -437.10 -427.80 -418.50 -409.20 -399.90 -390.60 -381.30 -372.00 -362.70 -353.40 -344.10 -334.80 -325.50 -316.20 -306.90 -297.60 -288.30 -279.00 -269.70 -260.40 -251.10 -241.80 -232.50 -223.20 -213.90 -204.60 -195.30 -186.00 -176.70 -167.40 -158.10 -148.80 -139.50 -130.20 -120.90 -111.60 -102.30  -93.00  -83.70  -74.40  -65.10  -55.80  -46.50  -37.20  -27.90  -18.60   -9.30    0.00    9.30   18.60   27.90   37.20   46.50   55.80   65.10   74.40   83.70   93.00  102.30  111.60  120.90  130.20  139.50  148.80  158.10  167.40  176.70  186.00  195.30  204.60  213.90  223.20  232.50  241.80  251.10  260.40  269.70  279.00  288.30  297.60  306.90  316.20  325.50  334.80  344.10  353.40  362.70  372.00  381.30  390.60  399.90  409.20  418.50  427.80  437.10  446.40  455.70  465.00  474.30  483.60  492.90  502.20  511.50  520.80  530.10  539.40  548.70  558.00  567.30  576.60  585.90  595.20  604.50  613.80  623.10  632.40  641.70  651.00  660.30  669.60  678.90  688.20  697.50  706.80  716.10  725.40  734.70  744.00  753.30  762.60  771.90  781.20  790.50  799.80  809.10  818.40  827.70  837.00  846.30  855.60  864.90  874.20  883.50  892.80

   Height   Standard deviation at grid points for the u component:
   354.40    0.407   0.387   0.394   0.417   0.442   0.434   0.440   0.420   0.422   0.453   0.431   0.453   0.440   0.437   0.411   0.401   0.429   0.422   0.424   0.407   0.410   0.406   0.392   0.383   0.379   0.381   0.380   0.371   0.383   0.381   0.356   0.368   0.397   0.391   0.394   0.392   0.414   0.394   0.415   0.430   0.408   0.392   0.416   0.417   0.414   0.423   0.379   0.399   0.450   0.409   0.407   0.428   0.426   0.445   0.419   0.428   0.422   0.417   0.419   0.408   0.410   0.426   0.442   0.442   0.466   0.455   0.487   0.476   0.481   0.480   0.490   0.503   0.473   0.480   0.474   0.465   0.457   0.461   0.463   0.465   0.456   0.434   0.390   0.361   0.393   0.417   0.432   0.425   0.449   0.443   0.426   0.441   0.438   0.479   0.526   0.491   0.493   0.490   0.472   0.458   0.461   0.444   0.434   0.452   0.433   0.422   0.423   0.431   0.412   0.433   0.418   0.384   0.343   0.340   0.358   0.355   0.375   0.348   0.362   0.373   0.359   0.337   0.344   0.354   0.365   0.361   0.357   0.362   0.368   0.381   0.356   0.330   0.341   0.330   0.357   0.362   0.353   0.355   0.323   0.342   0.363   0.365   0.362   0.363   0.367   0.378   0.382   0.389   0.362   0.328   0.338   0.347   0.308   0.333   0.361   0.376   0.358   0.354   0.353   0.387   0.430   0.420   0.434   0.422   0.412   0.388   0.376   0.327   0.326   0.339   0.368   0.363   0.362   0.380   0.368   0.375   0.366   0.339   0.332   0.361   0.362   0.396   0.414   0.441   0.393   0.380   0.358   0.346   0.351   0.326   0.324   0.343   0.334
   345.10    0.398   0.395   0.411   0.420   0.431   0.448   0.452   0.443   0.437   0.445   0.454   0.451   0.460   0.416   0.405   0.426   0.442   0.445   0.451   0.447   0.445   0.439   0.408   0.404   0.398   0.382   0.383   0.368   0.363   0.355   0.339   0.364   0.389   0.367   0.387   0.386   0.416   0.400   0.415   0.408   0.404   0.383   0.419   0.406   0.394   0.393   0.396   0.418   0.443   0.422   0.424   0.432   0.466   0.435   0.453   0.417   0.397   0.401   0.420   0.416   0.423   0.397   0.417   0.488   0.471   0.449   0.478   0.451   0.482   0.509   0.498   0.480   0.487   0.464   0.441   0.411   0.408   0.436   0.435   0.426   0.407   0.418   0.395   0.392   0.389   0.390   0.413   0.434   0.463   0.425   0.408   0.438   0.440   0.479   0.511   0.512   0.474   0.467   0.471   0.471   0.454   0.439   0.457   0.434   0.460   0.445   0.439   0.441   0.427   0.436   0.417   0.423   0.359   0.361   0.363   0.352   0.348   0.343   0.335   0.349   0.341   0.341   0.334   0.362   0.367   0.382   0.373   0.379   0.373   0.368   0.365   0.360   0.372   0.384   0.399   0.355   0.373   0.363   0.326   0.342   0.350   0.367   0.347   0.343   0.375   0.376   0.383   0.363   0.342   0.335   0.344   0.350   0.325   0.324   0.362   0.362   0.368   0.366   0.378   0.380   0.417   0.441   0.427   0.417   0.396   0.386   0.349   0.338   0.327   0.330   0.336   0.348   0.365   0.374   0.373   0.377   0.376   0.376   0.372   0.381   0.395   0.390   0.391   0.376   0.389   0.373   0.356   0.357   0.370   0.343   0.350   0.354   0.351
   335.80    0.397   0.420   0.423   0.427   0.430   0.453   0.462   0.466   0.456   0.436   0.448   0.447   0.434   0.459   0.435   0.442   0.463   0.478   0.486   0.461   0.448   0.476   0.442   0.413   0.396   0.404   0.385   0.352   0.384   0.376   0.376   0.380   0.383   0.367   0.381   0.381   0.393   0.397   0.395   0.442   0.392   0.392   0.398   0.413   0.403   0.397   0.413   0.421   0.426   0.418   0.432   0.449   0.428   0.462   0.467   0.418   0.408   0.416   0.431   0.443   0.417   0.413   0.435   0.477   0.491   0.469   0.468   0.450   0.476   0.459   0.472   0.482   0.471   0.448   0.425   0.403   0.391   0.382   0.419   0.427   0.426   0.427   0.407   0.399   0.402   0.420   0.435   0.437   0.421   0.458   0.424   0.430   0.442   0.463   0.478   0.472   0.487   0.466   0.452   0.478   0.504   0.458   0.428   0.464   0.468   0.425   0.450   0.424   0.413   0.418   0.407   0.394   0.382   0.367   0.339   0.332   0.341   0.356   0.333   0.336   0.311   0.343   0.352   0.375   0.351   0.388   0.367   0.380   0.377   0.385   0.388   0.390   0.404   0.394   0.399   0.354   0.352   0.372   0.338   0.325   0.335   0.356   0.330   0.337   0.342   0.345   0.331   0.339   0.353   0.346   0.352   0.362   0.334   0.347   0.357   0.376   0.367   0.377   0.390   0.408   0.422   0.432   0.445   0.425   0.418   0.386   0.365   0.357   0.348   0.354   0.340   0.354   0.344   0.368   0.371   0.369   0.366   0.367   0.369   0.344   0.370   0.394   0.358   0.374   0.359   0.353   0.359   0.361   0.355   0.346   0.381   0.357   0.347
   326.50    0.381   0.411   0.412   0.440   0.450   0.441   0.483   0.469   0.471   0.447   0.456   0.426   0.432   0.440   0.452   0.452   0.456   0.464   0.475   0.471   0.448   0.446   0.454   0.403   0.428   0.401   0.409   0.396   0.382   0.373   0.383   0.385   0.401   0.362   0.382   0.367   0.370   0.383   0.393   0.413   0.405   0.399   0.406   0.427   0.400   0.389   0.407   0.424   0.430   0.418   0.432   0.453   0.430   0.453   0.440   0.408   0.406   0.409   0.406   0.407   0.414   0.385   0.415   0.435   0.490   0.499   0.492   0.467   0.465   0.480   0.486   0.450   0.446   0.448   0.430   0.403   0.389   0.378   0.423   0.396   0.417   0.413   0.397   0.393   0.406   0.408   0.405   0.403   0.441   0.432   0.439   0.455   0.453   0.449   0.481   0.495   0.502   0.511   0.487   0.493   0.486   0.452   0.459   0.497   0.479   0.434   0.441   0.421   0.402   0.392   0.353   0.382   0.384   0.352   0.321   0.327   0.330   0.352   0.339   0.325   0.324   0.332   0.337   0.331   0.317   0.370   0.381   0.361   0.391   0.403   0.411   0.380   0.403   0.404   0.389   0.351   0.357   0.344   0.322   0.338   0.336   0.345   0.353   0.343   0.340   0.323   0.318   0.333   0.372   0.352   0.344   0.342   0.337   0.344   0.376   0.385   0.410   0.408   0.414   0.420   0.421   0.435   0.450   0.428   0.398   0.383   0.355   0.358   0.362   0.350   0.354   0.359   0.363   0.344   0.348   0.344   0.334   0.358   0.352   0.376   0.378   0.363   0.345   0.358   0.340   0.360   0.365   0.353   0.354   0.360   0.363   0.361   0.348
   317.20    0.382   0.401   0.425   0.450   0.461   0.453   0.475   0.475   0.448   0.429   0.425   0.428   0.429   0.465   0.450   0.447   0.432   0.429   0.424   0.421   0.463   0.441   0.420   0.410   0.398   0.427   0.427   0.401   0.391   0.405   0.388   0.356   0.370   0.373   0.358   0.361   0.375   0.392   0.399   0.388   0.402   0.431   0.417   0.407   0.394   0.384   0.405   0.411   0.423   0.427   0.426   0.431   0.444   0.434   0.429   0.424   0.394   0.409   0.417   0.374   0.394   0.387   0.388   0.429   0.459   0.487   0.470   0.457   0.480   0.485   0.488   0.469   0.431   0.424   0.408   0.387   0.385   0.415   0.416   0.402   0.398   0.394   0.382   0.383   0.379   0.377   0.349   0.386   0.414   0.413   0.397   0.409   0.434   0.467   0.464   0.492   0.490   0.514   0.507   0.500   0.472   0.456   0.484   0.489   0.482   0.424   0.415   0.391   0.403   0.397   0.383   0.375   0.367   0.357   0.343   0.336   0.318   0.333   0.324   0.315   0.331   0.321   0.335   0.316   0.338   0.349   0.367   0.374   0.386   0.388   0.382   0.393   0.368   0.374   0.386   0.382   0.357   0.325   0.331   0.327   0.354   0.362   0.340   0.335   0.330   0.350   0.336   0.349   0.375   0.391   0.358   0.359   0.331   0.354   0.369   0.377   0.383   0.400   0.431   0.433   0.420   0.425   0.434   0.423   0.397   0.381   0.347   0.333   0.351   0.362   0.376   0.378   0.379   0.349   0.326   0.324   0.333   0.347   0.327   0.366   0.373   0.368   0.341   0.331   0.336   0.341   0.359   0.389   0.359   0.365   0.355   0.378   0.390
   307.90    0.412   0.399   0.427   0.440   0.451   0.440   0.441   0.447   0.454   0.441   0.457   0.471   0.449   0.479   0.448   0.439   0.432   0.424   0.408   0.416   0.442   0.418   0.394   0.392   0.428   0.430   0.417   0.402   0.398   0.398   0.382   0.391   0.380   0.376   0.365   0.387   0.381   0.392   0.396   0.399   0.411   0.433   0.409   0.409   0.406   0.398   0.414   0.391   0.411   0.389   0.399   0.414   0.439   0.437   0.413   0.403   0.363   0.395   0.411   0.375   0.378   0.376   0.392   0.425   0.463   0.453   0.434   0.458   0.463   0.451   0.476   0.481   0.451   0.435   0.414   0.371   0.365   0.401   0.431   0.429   0.406   0.391   0.381   0.388   0.348   0.360   0.340   0.359   0.370   0.406   0.396   0.397   0.411   0.445   0.452   0.470   0.470   0.519   0.531   0.500   0.490   0.480   0.481   0.472   0.489   0.448   0.420   0.410   0.415   0.393   0.384   0.352   0.358   0.352   0.359   0.349   0.332   0.340   0.330   0.339   0.330   0.328   0.322   0.311   0.336   0.344   0.351   0.376   0.393   0.389   0.379   0.388   0.351   0.360   0.370   0.372   0.362   0.365   0.342   0.345   0.320   0.331   0.351   0.349   0.344   0.328   0.321   0.339   0.360   0.361   0.339   0.343   0.342   0.361   0.377   0.370   0.377   0.390   0.396   0.406   0.415   0.436   0.456   0.440   0.411   0.363   0.349   0.349   0.356   0.367   0.380   0.364   0.355   0.343   0.321   0.343   0.332   0.341   0.328   0.346   0.353   0.360   0.372   0.356   0.337   0.340   0.334   0.332   0.347   0.348   0.341   0.376   0.381
   298.60    0.393   0.414   0.383   0.412   0.422   0.396   0.433   0.443   0.473   0.468   0.436   0.463   0.462   0.460   0.466   0.444   0.453   0.456   0.435   0.435   0.442   0.417   0.401   0.392   0.428   0.422   0.398   0.407   0.388   0.361   0.363   0.394   0.393   0.376   0.365   0.390   0.390   0.378   0.383   0.401   0.401   0.387   0.396   0.399   0.356   0.360   0.369   0.369   0.384   0.366   0.374   0.392   0.410   0.397   0.420   0.407   0.388   0.390   0.393   0.405   0.371   0.367   0.345   0.394   0.409   0.436   0.422   0.455   0.448   0.460   0.463   0.446   0.441   0.428   0.380   0.380   0.373   0.386   0.421   0.435   0.437   0.417   0.396   0.366   0.340   0.325   0.331   0.329   0.351   0.374   0.425   0.403   0.411   0.456   0.455   0.464   0.484   0.504   0.530   0.498   0.489   0.466   0.473   0.463   0.440   0.448   0.435   0.382   0.382   0.387   0.398   0.396   0.366   0.388   0.370   0.363   0.364   0.340   0.342   0.339   0.331   0.336   0.330   0.346   0.340   0.346   0.359   0.365   0.393   0.414   0.390   0.384   0.352   0.346   0.359   0.416   0.408   0.365   0.369   0.334   0.338   0.344   0.339   0.356   0.342   0.344   0.329   0.358   0.362   0.366   0.352   0.334   0.344   0.365   0.361   0.375   0.367   0.371   0.388   0.409   0.398   0.408   0.438   0.424   0.390   0.379   0.376   0.341   0.353   0.341   0.361   0.382   0.366   0.344   0.343   0.361   0.338   0.334   0.339   0.336   0.351   0.377   0.380   0.371   0.334   0.328   0.338   0.320   0.317   0.335   0.340   0.381   0.386
   289.30    0.383   0.382   0.402   0.393   0.400   0.388   0.418   0.427   0.452   0.433   0.438   0.416   0.434   0.451   0.437   0.454   0.462   0.457   0.460   0.435   0.398   0.430   0.421   0.415   0.429   0.435   0.415   0.390   0.365   0.363   0.340   0.384   0.390   0.390   0.367   0.371   0.377   0.370   0.373   0.377   0.395   0.406   0.395   0.360   0.349   0.369   0.374   0.348   0.351   0.358   0.354   0.397   0.383   0.364   0.387   0.408   0.400   0.398   0.378   0.413   0.393   0.380   0.376   0.402   0.426   0.404   0.436   0.420   0.423   0.426   0.443   0.456   0.452   0.429   0.412   0.371   0.379   0.397   0.410   0.421   0.428   0.408   0.392   0.367   0.330   0.318   0.336   0.320   0.370   0.392   0.410   0.418   0.440   0.447   0.437   0.469   0.483   0.480   0.499   0.476   0.471   0.451   0.416   0.414   0.413   0.427   0.409   0.386   0.382   0.386   0.383   0.383   0.387   0.374   0.330   0.335   0.361   0.352   0.333   0.330   0.328   0.361   0.360   0.336   0.348   0.363   0.378   0.371   0.373   0.378   0.380   0.387   0.394   0.400   0.402   0.411   0.382   0.368   0.359   0.356   0.367   0.388   0.354   0.343   0.350   0.345   0.333   0.351   0.357   0.354   0.341   0.335   0.334   0.350   0.367   0.360   0.392   0.381   0.392   0.410   0.423   0.423   0.414   0.385   0.370   0.356   0.366   0.366   0.371   0.352   0.382   0.388   0.388   0.380   0.397   0.364   0.323   0.346   0.340   0.341   0.356   0.384   0.365   0.358   0.340   0.322   0.335   0.310   0.326   0.339   0.340   0.352   0.375
   280.00    0.389   0.408   0.403   0.390   0.360   0.380   0.408   0.408   0.427   0.430   0.445   0.441   0.440   0.439   0.414   0.434   0.423   0.422   0.437   0.424   0.440   0.449   0.438   0.430   0.436   0.419   0.412   0.388   0.362   0.344   0.341   0.353   0.383   0.337   0.352   0.373   0.351   0.371   0.343   0.363   0.373   0.383   0.376   0.371   0.380   0.344   0.353   0.344   0.338   0.349   0.385   0.391   0.395   0.378   0.385   0.386   0.405   0.380   0.388   0.390   0.394   0.402   0.397   0.399   0.393   0.383   0.396   0.391   0.395   0.422   0.434   0.437   0.411   0.398   0.398   0.365   0.367   0.397   0.416   0.393   0.381   0.360   0.356   0.328   0.327   0.324   0.334   0.332   0.369   0.387   0.401   0.385   0.411   0.450   0.474   0.490   0.494   0.476   0.482   0.454   0.453   0.462   0.430   0.395   0.422   0.412   0.386   0.389   0.399   0.398   0.396   0.379   0.383   0.347   0.337   0.313   0.346   0.348   0.333   0.340   0.350   0.340   0.341   0.337   0.365   0.381   0.367   0.367   0.382   0.375   0.394   0.414   0.414   0.387   0.405   0.424   0.385   0.374   0.347   0.370   0.380   0.394   0.379   0.335   0.336   0.334   0.333   0.348   0.361   0.352   0.349   0.347   0.355   0.347   0.335   0.358   0.359   0.403   0.389   0.419   0.423   0.418   0.401   0.368   0.376   0.373   0.364   0.373   0.359   0.377   0.376   0.379   0.407   0.388   0.375   0.373   0.339   0.353   0.358   0.347   0.369   0.351   0.358   0.372   0.388   0.349   0.325   0.340   0.348   0.339   0.336   0.363   0.362
   270.70    0.355   0.379   0.404   0.391   0.393   0.416   0.398   0.412   0.442   0.436   0.451   0.420   0.459   0.417   0.399   0.419   0.439   0.425   0.424   0.441   0.411   0.417   0.424   0.450   0.436   0.448   0.426   0.413   0.356   0.364   0.350   0.360   0.341   0.332   0.343   0.359   0.367   0.378   0.351   0.360   0.350   0.378   0.366   0.366   0.385   0.350   0.346   0.340   0.345   0.367   0.402   0.385   0.381   0.351   0.377   0.400   0.400   0.381   0.370   0.373   0.360   0.372   0.376   0.390   0.387   0.356   0.350   0.384   0.391   0.405   0.406   0.393   0.404   0.404   0.414   0.399   0.390   0.413   0.396   0.400   0.408   0.377   0.361   0.342   0.328   0.332   0.334   0.350   0.378   0.393   0.395   0.411   0.413   0.449   0.484   0.485   0.475   0.448   0.471   0.477   0.444   0.435   0.427   0.389   0.392   0.400   0.415   0.403   0.402   0.368   0.359   0.394   0.375   0.361   0.351   0.325   0.340   0.339   0.343   0.333   0.336   0.332   0.338   0.352   0.369   0.394   0.374   0.385   0.368   0.357   0.390   0.408   0.396   0.407   0.416   0.406   0.424   0.401   0.375   0.386   0.384   0.375   0.332   0.331   0.338   0.345   0.358   0.371   0.331   0.357   0.336   0.318   0.326   0.331   0.343   0.335   0.363   0.403   0.403   0.416   0.416   0.384   0.378   0.378   0.373   0.368   0.384   0.386   0.380   0.374   0.372   0.366   0.395   0.388   0.396   0.374   0.363   0.362   0.367   0.364   0.393   0.397   0.373   0.372   0.387   0.366   0.357   0.370   0.387   0.359   0.355   0.350   0.355
   261.40    0.399   0.382   0.390   0.387   0.386   0.410   0.406   0.395   0.404   0.423   0.420   0.428   0.440   0.407   0.421   0.411   0.411   0.430   0.440   0.417   0.390   0.400   0.406   0.426   0.436   0.423   0.398   0.392   0.383   0.368   0.367   0.346   0.320   0.333   0.326   0.363   0.365   0.355   0.347   0.346   0.369   0.342   0.355   0.386   0.393   0.350   0.370   0.340   0.342   0.351   0.381   0.370   0.352   0.354   0.348   0.391   0.414   0.402   0.382   0.356   0.330   0.363   0.370   0.375   0.367   0.342   0.374   0.386   0.372   0.381   0.375   0.367   0.361   0.374   0.409   0.435   0.405   0.399   0.409   0.389   0.423   0.356   0.334   0.333   0.335   0.350   0.344   0.375   0.398   0.427   0.394   0.415   0.413   0.440   0.486   0.508   0.476   0.477   0.479   0.459   0.452   0.426   0.424   0.384   0.382   0.385   0.412   0.376   0.383   0.378   0.398   0.393   0.411   0.384   0.372   0.338   0.342   0.321   0.312   0.318   0.321   0.325   0.347   0.351   0.344   0.367   0.351   0.362   0.395   0.384   0.386   0.384   0.361   0.374   0.406   0.415   0.406   0.421   0.389   0.377   0.395   0.388   0.354   0.331   0.331   0.331   0.335   0.351   0.333   0.331   0.318   0.310   0.326   0.334   0.334   0.334   0.377   0.400   0.394   0.376   0.408   0.385   0.375   0.379   0.361   0.341   0.374   0.398   0.391   0.385   0.382   0.389   0.352   0.359   0.369   0.379   0.363   0.361   0.360   0.377   0.397   0.419   0.371   0.386   0.400   0.365   0.373   0.367   0.385   0.382   0.350   0.346   0.353
   252.10    0.378   0.367   0.379   0.375   0.388   0.387   0.392   0.377   0.404   0.401   0.393   0.388   0.379   0.392   0.408   0.414   0.407   0.398   0.413   0.422   0.421   0.388   0.410   0.420   0.408   0.397   0.384   0.375   0.374   0.352   0.356   0.340   0.324   0.351   0.334   0.352   0.346   0.335   0.333   0.360   0.349   0.349   0.361   0.383   0.363   0.356   0.348   0.317   0.312   0.322   0.335   0.372   0.375   0.381   0.380   0.387   0.398   0.419   0.368   0.340   0.361   0.357   0.345   0.375   0.361   0.371   0.376   0.381   0.366   0.369   0.360   0.359   0.355   0.372   0.429   0.417   0.423   0.433   0.415   0.409   0.411   0.377   0.350   0.346   0.336   0.345   0.358   0.372   0.396   0.417   0.398   0.413   0.423   0.430   0.468   0.490   0.493   0.490   0.465   0.464   0.427   0.409   0.417   0.437   0.377   0.389   0.393   0.380   0.375   0.388   0.390   0.373   0.404   0.369   0.388   0.369   0.343   0.323   0.326   0.327   0.327   0.313   0.340   0.328   0.357   0.364   0.375   0.350   0.361   0.361   0.368   0.365   0.383   0.394   0.413   0.409   0.404   0.397   0.370   0.377   0.372   0.365   0.364   0.339   0.347   0.330   0.332   0.331   0.317   0.311   0.316   0.305   0.301   0.334   0.339   0.342   0.357   0.380   0.390   0.390   0.401   0.369   0.392   0.374   0.373   0.367   0.413   0.410   0.394   0.378   0.411   0.401   0.373   0.340   0.326   0.361   0.368   0.371   0.366   0.395   0.403   0.410   0.398   0.403   0.377   0.382   0.373   0.369   0.377   0.346   0.345   0.351   0.340
   242.80    0.378   0.379   0.363   0.367   0.394   0.390   0.377   0.385   0.395   0.407   0.388   0.359   0.374   0.371   0.377   0.395   0.381   0.373   0.374   0.395   0.410   0.399   0.411   0.407   0.408   0.388   0.389   0.380   0.368   0.350   0.371   0.366   0.338   0.345   0.331   0.357   0.374   0.343   0.353   0.363   0.363   0.356   0.386   0.375   0.361   0.353   0.317   0.314   0.312   0.309   0.347   0.380   0.370   0.372   0.383   0.408   0.399   0.430   0.397   0.389   0.359   0.360   0.342   0.355   0.365   0.385   0.364   0.384   0.356   0.366   0.361   0.353   0.352   0.389   0.429   0.429   0.427   0.450   0.425   0.426   0.388   0.362   0.362   0.360   0.343   0.339   0.345   0.363   0.391   0.401   0.383   0.396   0.413   0.422   0.450   0.485   0.474   0.450   0.453   0.418   0.403   0.408   0.415   0.419   0.416   0.368   0.392   0.380   0.386   0.400   0.407   0.376   0.387   0.366   0.400   0.364   0.337   0.334   0.333   0.349   0.359   0.383   0.323   0.340   0.331   0.341   0.367   0.360   0.343   0.345   0.364   0.375   0.391   0.379   0.398   0.422   0.406   0.399   0.382   0.370   0.372   0.367   0.361   0.324   0.333   0.305   0.317   0.312   0.330   0.324   0.307   0.299   0.328   0.335   0.324   0.324   0.332   0.350   0.362   0.394   0.384   0.378   0.394   0.379   0.350   0.371   0.403   0.421   0.416   0.429   0.415   0.411   0.356   0.352   0.355   0.355   0.354   0.349   0.370   0.392   0.411   0.394   0.375   0.382   0.381   0.366   0.363   0.360   0.352   0.333   0.339   0.357   0.343
   233.50    0.393   0.379   0.370   0.391   0.372   0.414   0.381   0.407   0.420   0.406   0.395   0.372   0.376   0.371   0.389   0.377   0.383   0.368   0.362   0.377   0.413   0.424   0.408   0.397   0.390   0.392   0.393   0.386   0.390   0.362   0.378   0.369   0.335   0.319   0.343   0.356   0.394   0.360   0.351   0.345   0.361   0.368   0.391   0.349   0.312   0.320   0.317   0.320   0.331   0.333   0.365   0.373   0.362   0.397   0.394   0.403   0.400   0.408   0.445   0.426   0.391   0.359   0.358   0.332   0.344   0.369   0.373   0.390   0.378   0.364   0.366   0.358   0.386   0.400   0.420   0.427   0.430   0.420   0.430   0.434   0.382   0.387   0.357   0.359   0.360   0.334   0.342   0.359   0.383   0.379   0.414   0.404   0.401   0.407   0.446   0.460   0.473   0.460   0.429   0.409   0.401   0.406   0.436   0.458   0.417   0.383   0.408   0.423   0.417   0.417   0.425   0.416   0.424   0.404   0.397   0.401   0.395   0.354   0.320   0.366   0.376   0.386   0.360   0.361   0.337   0.338   0.347   0.345   0.366   0.362   0.369   0.396   0.389   0.391   0.403   0.411   0.380   0.369   0.366   0.380   0.386   0.391   0.372   0.337   0.320   0.323   0.310   0.332   0.297   0.318   0.330   0.317   0.325   0.334   0.326   0.343   0.355   0.373   0.343   0.354   0.352   0.381   0.386   0.374   0.349   0.387   0.405   0.395   0.399   0.422   0.415   0.390   0.345   0.352   0.344   0.345   0.338   0.354   0.384   0.377   0.388   0.394   0.378   0.360   0.366   0.368   0.358   0.351   0.386   0.368   0.360   0.375   0.388
   224.20    0.414   0.419   0.422   0.396   0.388   0.397   0.386   0.374   0.411   0.402   0.396   0.376   0.344   0.358   0.362   0.356   0.386   0.370   0.365   0.413   0.408   0.438   0.428   0.416   0.406   0.413   0.418   0.403   0.429   0.389   0.367   0.372   0.344   0.344   0.334   0.364   0.390   0.368   0.351   0.344   0.363   0.364   0.380   0.338   0.332   0.328   0.343   0.337   0.310   0.338   0.352   0.363   0.384   0.380   0.412   0.416   0.422   0.431   0.432   0.432   0.410   0.382   0.344   0.340   0.337   0.371   0.353   0.365   0.364   0.390   0.362   0.351   0.357   0.394   0.422   0.422   0.412   0.401   0.388   0.387   0.380   0.356   0.358   0.353   0.352   0.347   0.361   0.353   0.404   0.391   0.394   0.400   0.391   0.424   0.438   0.446   0.460   0.467   0.433   0.421   0.405   0.429   0.452   0.460   0.404   0.418   0.402   0.409   0.427   0.462   0.412   0.419   0.444   0.476   0.436   0.417   0.399   0.356   0.334   0.374   0.360   0.357   0.348   0.354   0.352   0.345   0.361   0.360   0.376   0.391   0.406   0.371   0.372   0.387   0.409   0.401   0.401   0.370   0.358   0.381   0.384   0.382   0.360   0.350   0.320   0.311   0.309   0.333   0.348   0.328   0.320   0.323   0.309   0.312   0.336   0.354   0.386   0.374   0.357   0.359   0.367   0.342   0.342   0.371   0.385   0.399   0.388   0.397   0.394   0.411   0.414   0.382   0.377   0.374   0.365   0.377   0.364   0.367   0.357   0.346   0.361   0.379   0.346   0.366   0.343   0.367   0.364   0.355   0.363   0.377   0.379   0.384   0.386
   214.90    0.448   0.469   0.483   0.435   0.403   0.395   0.386   0.369   0.392   0.390   0.384   0.361   0.355   0.358   0.342   0.354   0.365   0.387   0.402   0.405   0.443   0.426   0.437   0.446   0.423   0.417   0.415   0.387   0.391   0.394   0.365   0.365   0.363   0.336   0.324   0.354   0.361   0.357   0.337   0.325   0.347   0.355   0.358   0.374   0.362   0.354   0.342   0.327   0.310   0.343   0.357   0.352   0.360   0.375   0.399   0.408   0.407   0.428   0.450   0.419   0.423   0.378   0.336   0.337   0.333   0.351   0.357   0.339   0.364   0.383   0.358   0.367   0.355   0.380   0.409   0.382   0.381   0.398   0.361   0.360   0.367   0.364   0.371   0.367   0.352   0.347   0.386   0.402   0.401   0.384   0.384   0.403   0.424   0.448   0.468   0.426   0.434   0.461   0.425   0.403   0.414   0.433   0.442   0.450   0.444   0.395   0.425   0.405   0.419   0.460   0.440   0.432   0.457   0.488   0.449   0.407   0.395   0.391   0.387   0.385   0.375   0.354   0.349   0.325   0.349   0.371   0.364   0.371   0.383   0.385   0.398   0.409   0.394   0.402   0.384   0.386   0.376   0.364   0.375   0.388   0.386   0.384   0.377   0.334   0.318   0.300   0.344   0.349   0.333   0.333   0.341   0.355   0.357   0.373   0.364   0.372   0.392   0.393   0.398   0.365   0.342   0.360   0.356   0.376   0.417   0.397   0.402   0.416   0.409   0.400   0.407   0.391   0.414   0.395   0.387   0.397   0.377   0.365   0.350   0.359   0.352   0.361   0.356   0.348   0.363   0.368   0.378   0.388   0.391   0.381   0.380   0.354   0.360
   205.60    0.494   0.479   0.499   0.479   0.442   0.420   0.407   0.394   0.397   0.412   0.400   0.375   0.381   0.371   0.344   0.339   0.348   0.359   0.377   0.391   0.423   0.419   0.442   0.444   0.429   0.438   0.419   0.388   0.379   0.378   0.372   0.361   0.380   0.347   0.333   0.341   0.350   0.331   0.325   0.333   0.347   0.357   0.352   0.394   0.396   0.383   0.350   0.316   0.331   0.342   0.335   0.341   0.357   0.345   0.390   0.423   0.425   0.444   0.440   0.408   0.395   0.393   0.372   0.357   0.355   0.332   0.333   0.367   0.356   0.358   0.358   0.356   0.384   0.387   0.401   0.394   0.363   0.395   0.371   0.368   0.361   0.368   0.369   0.329   0.331   0.351   0.387   0.394   0.407   0.391   0.394   0.417   0.445   0.446   0.473   0.455   0.463   0.443   0.427   0.409   0.454   0.468   0.464   0.449   0.445   0.431   0.427   0.433   0.444   0.466   0.436   0.455   0.472   0.489   0.436   0.451   0.438   0.422   0.430   0.417   0.378   0.373   0.346   0.334   0.373   0.377   0.351   0.374   0.419   0.386   0.378   0.396   0.411   0.389   0.387   0.366   0.382   0.385   0.387   0.376   0.386   0.363   0.384   0.340   0.338   0.342   0.332   0.357   0.355   0.350   0.361   0.393   0.386   0.377   0.368   0.419   0.450   0.450   0.404   0.362   0.351   0.371   0.361   0.378   0.395   0.392   0.403   0.416   0.404   0.423   0.429   0.397   0.393   0.411   0.418   0.393   0.367   0.372   0.361   0.363   0.347   0.355   0.328   0.343   0.349   0.364   0.376   0.370   0.373   0.367   0.382   0.374   0.368
   196.30    0.484   0.484   0.475   0.456   0.446   0.450   0.459   0.430   0.428   0.416   0.386   0.371   0.373   0.380   0.335   0.348   0.341   0.369   0.363   0.369   0.421   0.421   0.447   0.424   0.417   0.422   0.423   0.414   0.383   0.390   0.376   0.350   0.362   0.344   0.332   0.340   0.335   0.347   0.332   0.330   0.323   0.361   0.375   0.410   0.380   0.367   0.366   0.350   0.345   0.371   0.356   0.360   0.368   0.357   0.395   0.420   0.415   0.440   0.417   0.393   0.395   0.391   0.361   0.321   0.356   0.354   0.351   0.385   0.366   0.356   0.340   0.344   0.361   0.389   0.410   0.417   0.390   0.377   0.392   0.399   0.373   0.351   0.350   0.359   0.333   0.343   0.362   0.393   0.408   0.393   0.434   0.444   0.466   0.449   0.453   0.458   0.434   0.440   0.446   0.450   0.445   0.446   0.469   0.457   0.455   0.431   0.446   0.461   0.480   0.490   0.474   0.481   0.465   0.457   0.466   0.462   0.423   0.433   0.419   0.424   0.398   0.361   0.344   0.357   0.355   0.362   0.384   0.391   0.385   0.404   0.405   0.389   0.382   0.379   0.402   0.374   0.370   0.404   0.380   0.368   0.385   0.380   0.373   0.362   0.342   0.322   0.341   0.376   0.376   0.358   0.368   0.403   0.387   0.373   0.392   0.407   0.442   0.451   0.410   0.410   0.364   0.365   0.398   0.377   0.381   0.396   0.377   0.380   0.419   0.402   0.435   0.424   0.399   0.392   0.406   0.425   0.402   0.391   0.381   0.388   0.399   0.363   0.363   0.376   0.373   0.383   0.371   0.392   0.376   0.380   0.384   0.388   0.366
   187.00    0.491   0.484   0.492   0.482   0.483   0.451   0.453   0.449   0.441   0.402   0.373   0.369   0.375   0.401   0.368   0.363   0.363   0.359   0.380   0.357   0.412   0.412   0.428   0.406   0.397   0.401   0.388   0.373   0.379   0.362   0.369   0.359   0.368   0.360   0.363   0.364   0.352   0.325   0.341   0.314   0.314   0.345   0.388   0.394   0.418   0.413   0.384   0.368   0.333   0.362   0.348   0.373   0.368   0.381   0.382   0.393   0.403   0.425   0.419   0.395   0.384   0.385   0.377   0.376   0.374   0.376   0.372   0.406   0.403   0.367   0.360   0.353   0.349   0.365   0.369   0.378   0.395   0.391   0.384   0.388   0.363   0.358   0.376   0.350   0.356   0.355   0.362   0.389   0.395   0.408   0.432   0.422   0.449   0.439   0.429   0.427   0.437   0.417   0.439   0.416   0.412   0.426   0.433   0.444   0.457   0.440   0.455   0.468   0.509   0.496   0.509   0.501   0.478   0.467   0.469   0.481   0.428   0.418   0.436   0.418   0.396   0.368   0.369   0.346   0.335   0.354   0.353   0.387   0.398   0.399   0.406   0.408   0.426   0.400   0.392   0.391   0.396   0.396   0.393   0.394   0.405   0.385   0.370   0.352   0.338   0.320   0.368   0.381   0.370   0.367   0.355   0.387   0.394   0.384   0.390   0.410   0.442   0.444   0.428   0.399   0.385   0.382   0.376   0.390   0.378   0.382   0.396   0.403   0.410   0.425   0.436   0.419   0.396   0.408   0.401   0.421   0.411   0.411   0.419   0.416   0.377   0.364   0.371   0.407   0.402   0.386   0.365   0.391   0.380   0.375   0.372   0.380   0.390
   177.70    0.475   0.523   0.485   0.503   0.504   0.454   0.443   0.441   0.429   0.416   0.396   0.387   0.386   0.423   0.373   0.384   0.346   0.366   0.420   0.408   0.397   0.411   0.411   0.387   0.402   0.413   0.382   0.383   0.360   0.366   0.392   0.388   0.365   0.354   0.341   0.364   0.347   0.328   0.328   0.345   0.327   0.341   0.375   0.386   0.416   0.428   0.409   0.365   0.341   0.346   0.344   0.371   0.393   0.388   0.370   0.368   0.383   0.381   0.369   0.379   0.374   0.373   0.378   0.375   0.380   0.365   0.389   0.409   0.380   0.411   0.371   0.368   0.363   0.381   0.360   0.378   0.403   0.406   0.405   0.405   0.365   0.367   0.398   0.375   0.368   0.369   0.375   0.393   0.392   0.409   0.436   0.414   0.389   0.401   0.402   0.398   0.405   0.413   0.407   0.440   0.474   0.443   0.419   0.432   0.411   0.445   0.430   0.474   0.477   0.524   0.511   0.469   0.454   0.465   0.466   0.465   0.457   0.423   0.418   0.388   0.377   0.343   0.333   0.356   0.336   0.378   0.386   0.396   0.410   0.400   0.402   0.410   0.425   0.419   0.416   0.420   0.415   0.381   0.365   0.388   0.384   0.380   0.366   0.345   0.357   0.333   0.346   0.361   0.389   0.369   0.371   0.402   0.434   0.403   0.386   0.396   0.432   0.433   0.434   0.400   0.391   0.365   0.377   0.386   0.368   0.362   0.387   0.365   0.405   0.437   0.411   0.422   0.407   0.392   0.409   0.421   0.445   0.427   0.420   0.397   0.401   0.390   0.406   0.419   0.405   0.392   0.386   0.383   0.399   0.389   0.400   0.371   0.391
   168.40    0.496   0.511   0.497   0.481   0.458   0.454   0.442   0.435   0.422   0.426   0.405   0.395   0.407   0.398   0.392   0.366   0.369   0.373   0.399   0.409   0.425   0.410   0.394   0.374   0.365   0.387   0.372   0.376   0.379   0.382   0.391   0.391   0.375   0.363   0.337   0.331   0.341   0.315   0.346   0.335   0.326   0.325   0.334   0.368   0.392   0.422   0.405   0.384   0.363   0.362   0.379   0.383   0.378   0.374   0.365   0.380   0.374   0.412   0.385   0.391   0.366   0.373   0.398   0.385   0.406   0.370   0.374   0.385   0.394   0.406   0.386   0.383   0.383   0.374   0.384   0.396   0.402   0.412   0.400   0.406   0.392   0.394   0.386   0.386   0.364   0.386   0.382   0.361   0.374   0.375   0.405   0.435   0.405   0.411   0.400   0.375   0.399   0.407   0.411   0.441   0.436   0.425   0.442   0.437   0.452   0.462   0.469   0.478   0.463   0.484   0.504   0.466   0.471   0.461   0.470   0.486   0.473   0.429   0.414   0.403   0.366   0.338   0.329   0.341   0.353   0.376   0.376   0.375   0.390   0.413   0.423   0.437   0.438   0.430   0.433   0.443   0.423   0.404   0.392   0.408   0.368   0.362   0.361   0.370   0.352   0.346   0.347   0.370   0.374   0.377   0.372   0.384   0.381   0.399   0.371   0.395   0.404   0.421   0.431   0.393   0.373   0.358   0.380   0.396   0.379   0.383   0.376   0.370   0.386   0.409   0.400   0.399   0.389   0.387   0.391   0.424   0.446   0.424   0.417   0.383   0.411   0.392   0.394   0.394   0.376   0.399   0.390   0.430   0.418   0.416   0.405   0.375   0.386
   159.10    0.455   0.466   0.438   0.441   0.459   0.444   0.429   0.430   0.417   0.399   0.403   0.412   0.400   0.416   0.410   0.405   0.392   0.379   0.390   0.401   0.379   0.373   0.372   0.351   0.373   0.373   0.383   0.367   0.398   0.401   0.386   0.405   0.370   0.342   0.362   0.337   0.323   0.324   0.335   0.298   0.308   0.322   0.327   0.340   0.378   0.394   0.368   0.393   0.398   0.387   0.388   0.385   0.409   0.400   0.345   0.387   0.390   0.434   0.441   0.400   0.384   0.392   0.378   0.404   0.395   0.404   0.374   0.375   0.392   0.380   0.408   0.387   0.396   0.387   0.411   0.403   0.411   0.407   0.407   0.399   0.397   0.356   0.365   0.354   0.345   0.375   0.398   0.367   0.364   0.370   0.398   0.397   0.432   0.413   0.388   0.365   0.402   0.400   0.427   0.425   0.413   0.443   0.438   0.447   0.469   0.484   0.508   0.484   0.502   0.480   0.462   0.458   0.462   0.461   0.445   0.452   0.451   0.437   0.426   0.380   0.384   0.378   0.344   0.326   0.357   0.385   0.382   0.393   0.386   0.411   0.428   0.406   0.435   0.407   0.424   0.408   0.413   0.409   0.385   0.384   0.384   0.386   0.368   0.362   0.357   0.336   0.364   0.375   0.372   0.339   0.364   0.354   0.355   0.374   0.358   0.369   0.399   0.403   0.385   0.393   0.384   0.380   0.404   0.401   0.384   0.384   0.401   0.372   0.370   0.391   0.408   0.404   0.400   0.374   0.388   0.409   0.418   0.414   0.410   0.393   0.390   0.391   0.383   0.408   0.391   0.406   0.421   0.425   0.410   0.425   0.393   0.391   0.390
   149.80    0.442   0.444   0.433   0.436   0.466   0.451   0.425   0.438   0.445   0.402   0.415   0.402   0.393   0.423   0.398   0.400   0.387   0.393   0.366   0.398   0.393   0.351   0.355   0.356   0.351   0.353   0.353   0.370   0.392   0.411   0.384   0.400   0.370   0.348   0.367   0.346   0.319   0.324   0.316   0.310   0.303   0.293   0.320   0.326   0.356   0.353   0.345   0.389   0.397   0.380   0.397   0.413   0.398   0.375   0.373   0.387   0.407   0.425   0.413   0.386   0.403   0.388   0.379   0.388   0.383   0.391   0.395   0.392   0.374   0.414   0.397   0.408   0.423   0.405   0.397   0.407   0.397   0.387   0.387   0.390   0.381   0.364   0.353   0.367   0.378   0.380   0.344   0.365   0.376   0.399   0.387   0.419   0.418   0.399   0.390   0.373   0.421   0.443   0.423   0.445   0.463   0.449   0.440   0.423   0.446   0.494   0.471   0.482   0.445   0.451   0.452   0.449   0.441   0.461   0.456   0.443   0.454   0.413   0.408   0.372   0.397   0.364   0.337   0.331   0.359   0.373   0.376   0.368   0.385   0.378   0.398   0.407   0.394   0.387   0.369   0.392   0.370   0.375   0.398   0.382   0.383   0.402   0.416   0.397   0.391   0.366   0.383   0.400   0.362   0.371   0.373   0.339   0.357   0.368   0.337   0.372   0.392   0.400   0.371   0.354   0.367   0.377   0.396   0.386   0.370   0.370   0.375   0.384   0.391   0.385   0.389   0.402   0.428   0.387   0.391   0.416   0.418   0.428   0.409   0.380   0.385   0.389   0.403   0.396   0.402   0.408   0.416   0.413   0.398   0.404   0.392   0.400   0.395
   140.50    0.451   0.426   0.420   0.409   0.445   0.448   0.415   0.433   0.429   0.385   0.396   0.403   0.411   0.437   0.404   0.417   0.406   0.406   0.387   0.367   0.366   0.363   0.361   0.334   0.341   0.354   0.357   0.365   0.378   0.413   0.381   0.379   0.369   0.369   0.334   0.333   0.322   0.335   0.326   0.305   0.285   0.290   0.294   0.345   0.352   0.359   0.375   0.389   0.380   0.399   0.392   0.407   0.415   0.384   0.388   0.365   0.384   0.433   0.395   0.398   0.401   0.398   0.405   0.391   0.400   0.410   0.442   0.417   0.425   0.434   0.420   0.414   0.423   0.420   0.393   0.405   0.388   0.381   0.353   0.387   0.373   0.380   0.353   0.374   0.392   0.392   0.355   0.345   0.380   0.379   0.414   0.389   0.388   0.408   0.420   0.399   0.433   0.461   0.419   0.451   0.452   0.436   0.424   0.441   0.465   0.482   0.462   0.465   0.443   0.427   0.426   0.457   0.441   0.466   0.436   0.420   0.415   0.395   0.371   0.357   0.370   0.333   0.329   0.336   0.347   0.353   0.346   0.342   0.358   0.332   0.379   0.381   0.359   0.376   0.373   0.364   0.344   0.356   0.377   0.372   0.376   0.376   0.377   0.396   0.364   0.339   0.374   0.378   0.374   0.350   0.389   0.373   0.362   0.350   0.353   0.366   0.380   0.405   0.377   0.374   0.362   0.385   0.352   0.360   0.337   0.325   0.344   0.359   0.371   0.359   0.412   0.413   0.402   0.388   0.392   0.411   0.412   0.409   0.406   0.395   0.380   0.356   0.377   0.358   0.380   0.423   0.408   0.419   0.413   0.402   0.373   0.373   0.386
   131.20    0.455   0.422   0.458   0.440   0.488   0.458   0.436   0.418   0.433   0.404   0.423   0.406   0.405   0.399   0.399   0.401   0.389   0.388   0.370   0.346   0.343   0.333   0.352   0.340   0.322   0.329   0.333   0.333   0.342   0.369   0.367   0.373   0.362   0.356   0.328   0.308   0.334   0.335   0.303   0.314   0.305   0.314   0.293   0.349   0.364   0.369   0.364   0.368   0.388   0.382   0.380   0.384   0.367   0.362   0.375   0.373   0.372   0.391   0.412   0.413   0.377   0.395   0.373   0.393   0.415   0.407   0.430   0.419   0.446   0.442   0.427   0.439   0.432   0.421   0.403   0.390   0.368   0.370   0.353   0.384   0.391   0.401   0.380   0.372   0.386   0.380   0.365   0.370   0.374   0.390   0.396   0.405   0.378   0.414   0.417   0.413   0.421   0.455   0.449   0.445   0.430   0.439   0.404   0.454   0.448   0.461   0.444   0.460   0.436   0.441   0.457   0.424   0.423   0.439   0.408   0.419   0.411   0.378   0.350   0.338   0.335   0.306   0.330   0.334   0.346   0.350   0.347   0.332   0.338   0.352   0.375   0.382   0.362   0.360   0.348   0.339   0.350   0.357   0.369   0.351   0.364   0.351   0.358   0.389   0.384   0.372   0.361   0.353   0.348   0.373   0.362   0.361   0.325   0.336   0.365   0.374   0.368   0.371   0.357   0.392   0.377   0.388   0.363   0.353   0.322   0.328   0.342   0.337   0.360   0.378   0.391   0.395   0.416   0.408   0.417   0.399   0.412   0.411   0.412   0.407   0.386   0.374   0.373   0.396   0.390   0.399   0.402   0.407   0.409   0.420   0.380   0.368   0.363
   121.90    0.441   0.432   0.437   0.435   0.468   0.458   0.422   0.421   0.419   0.405   0.404   0.430   0.407   0.420   0.416   0.398   0.390   0.363   0.366   0.357   0.362   0.349   0.347   0.344   0.326   0.327   0.323   0.323   0.347   0.367   0.346   0.319   0.356   0.336   0.346   0.331   0.337   0.337   0.321   0.299   0.303   0.298   0.323   0.355   0.360   0.365   0.346   0.375   0.374   0.393   0.374   0.368   0.359   0.358   0.371   0.374   0.384   0.398   0.424   0.405   0.403   0.385   0.356   0.383   0.395   0.410   0.420   0.430   0.412   0.436   0.435   0.445   0.430   0.440   0.410   0.383   0.384   0.360   0.373   0.373   0.398   0.417   0.393   0.379   0.386   0.388   0.382   0.383   0.350   0.380   0.366   0.383   0.380   0.403   0.398   0.440   0.440   0.429   0.442   0.418   0.407   0.424   0.421   0.446   0.446   0.430   0.439   0.446   0.443   0.463   0.448   0.425   0.406   0.433   0.447   0.427   0.407   0.374   0.356   0.361   0.340   0.330   0.330   0.345   0.381   0.348   0.339   0.335   0.352   0.351   0.363   0.382   0.361   0.359   0.371   0.358   0.345   0.338   0.374   0.357   0.371   0.370   0.381   0.399   0.400   0.377   0.368   0.373   0.356   0.356   0.350   0.359   0.331   0.339   0.351   0.380   0.374   0.372   0.369   0.358   0.374   0.351   0.344   0.343   0.332   0.333   0.347   0.355   0.359   0.365   0.412   0.400   0.386   0.405   0.421   0.410   0.425   0.413   0.372   0.390   0.407   0.376   0.371   0.390   0.393   0.378   0.380   0.411   0.414   0.399   0.397   0.383   0.372
   112.60    0.445   0.408   0.427   0.423   0.424   0.425   0.437   0.402   0.400   0.393   0.398   0.399   0.395   0.413   0.401   0.404   0.388   0.385   0.367   0.373   0.379   0.364   0.367   0.338   0.342   0.344   0.323   0.337   0.342   0.355   0.320   0.339   0.346   0.317   0.343   0.321   0.332   0.333   0.324   0.322   0.310   0.321   0.350   0.364   0.367   0.374   0.354   0.361   0.379   0.378   0.374   0.359   0.333   0.352   0.374   0.386   0.412   0.392   0.410   0.417   0.400   0.405   0.406   0.390   0.421   0.454   0.449   0.429   0.429   0.445   0.476   0.464   0.461   0.438   0.421   0.413   0.379   0.375   0.391   0.364   0.398   0.403   0.394   0.385   0.354   0.370   0.369   0.387   0.374   0.378   0.365   0.350   0.371   0.393   0.366   0.412   0.419   0.443   0.458   0.421   0.411   0.412   0.424   0.418   0.421   0.414   0.408   0.418   0.430   0.433   0.420   0.418   0.407   0.423   0.412   0.423   0.419   0.381   0.378   0.378   0.344   0.339   0.335   0.365   0.376   0.363   0.349   0.324   0.324   0.320   0.350   0.356   0.380   0.362   0.361   0.367   0.344   0.344   0.378   0.382   0.384   0.382   0.398   0.375   0.390   0.396   0.395   0.357   0.403   0.394   0.363   0.336   0.334   0.349   0.362   0.388   0.365   0.370   0.346   0.365   0.340   0.352   0.348   0.342   0.331   0.327   0.358   0.372   0.367   0.382   0.390   0.408   0.407   0.422   0.448   0.406   0.411   0.388   0.358   0.359   0.388   0.367   0.384   0.387   0.382   0.361   0.372   0.372   0.387   0.387   0.366   0.377   0.355
   103.30    0.453   0.432   0.421   0.408   0.424   0.443   0.429   0.407   0.407   0.396   0.385   0.412   0.419   0.425   0.398   0.400   0.398   0.377   0.378   0.389   0.396   0.393   0.375   0.374   0.361   0.338   0.342   0.331   0.332   0.348   0.331   0.327   0.329   0.337   0.337   0.329   0.314   0.336   0.341   0.373   0.326   0.346   0.356   0.383   0.378   0.393   0.384   0.350   0.354   0.356   0.356   0.336   0.344   0.361   0.387   0.362   0.388   0.407   0.428   0.415   0.408   0.387   0.426   0.429   0.438   0.449   0.451   0.421   0.440   0.462   0.481   0.461   0.439   0.434   0.394   0.389   0.373   0.368   0.362   0.338   0.391   0.420   0.389   0.369   0.350   0.362   0.376   0.363   0.363   0.352   0.357   0.339   0.340   0.378   0.370   0.438   0.436   0.450   0.464   0.455   0.427   0.434   0.421   0.419   0.429   0.423   0.418   0.406   0.435   0.417   0.422   0.395   0.401   0.394   0.425   0.420   0.435   0.397   0.359   0.362   0.357   0.361   0.359   0.357   0.360   0.356   0.350   0.349   0.342   0.308   0.339   0.353   0.363   0.364   0.381   0.377   0.348   0.351   0.382   0.366   0.415   0.376   0.394   0.379   0.375   0.369   0.397   0.401   0.400   0.374   0.367   0.339   0.331   0.365   0.367   0.374   0.358   0.354   0.352   0.360   0.338   0.340   0.370   0.346   0.340   0.347   0.340   0.358   0.377   0.380   0.363   0.377   0.399   0.414   0.430   0.414   0.413   0.371   0.376   0.394   0.384   0.383   0.412   0.412   0.410   0.379   0.357   0.366   0.368   0.382   0.373   0.367   0.358
    94.00    0.443   0.434   0.440   0.431   0.447   0.429   0.427   0.419   0.408   0.407   0.407   0.383   0.438   0.432   0.406   0.403   0.383   0.375   0.380   0.365   0.397   0.414   0.399   0.379   0.370   0.355   0.348   0.351   0.331   0.360   0.342   0.322   0.326   0.312   0.347   0.336   0.351   0.343   0.346   0.361   0.356   0.371   0.371   0.360   0.374   0.376   0.347   0.340   0.345   0.360   0.356   0.343   0.349   0.341   0.345   0.377   0.364   0.373   0.399   0.408   0.398   0.403   0.408   0.440   0.425   0.446   0.444   0.433   0.460   0.452   0.433   0.410   0.423   0.417   0.392   0.361   0.380   0.367   0.346   0.339   0.372   0.392   0.398   0.355   0.367   0.363   0.360   0.378   0.369   0.375   0.351   0.348   0.326   0.350   0.400   0.427   0.438   0.449   0.462   0.456   0.430   0.424   0.410   0.408   0.399   0.403   0.389   0.412   0.414   0.382   0.400   0.380   0.394   0.391   0.389   0.409   0.432   0.399   0.366   0.371   0.346   0.351   0.361   0.359   0.379   0.374   0.351   0.317   0.336   0.332   0.336   0.330   0.359   0.378   0.369   0.395   0.386   0.387   0.378   0.383   0.382   0.366   0.382   0.372   0.387   0.400   0.398   0.405   0.413   0.381   0.375   0.354   0.341   0.357   0.364   0.350   0.349   0.334   0.326   0.350   0.332   0.346   0.344   0.363   0.353   0.329   0.344   0.357   0.358   0.354   0.347   0.360   0.374   0.379   0.413   0.393   0.401   0.373   0.352   0.368   0.392   0.428   0.440   0.426   0.389   0.392   0.353   0.370   0.363   0.357   0.371   0.352   0.329
    84.70    0.447   0.439   0.455   0.437   0.428   0.416   0.419   0.426   0.413   0.423   0.413   0.393   0.443   0.450   0.429   0.416   0.429   0.409   0.397   0.385   0.417   0.416   0.399   0.390   0.378   0.398   0.363   0.355   0.380   0.373   0.373   0.320   0.320   0.354   0.349   0.374   0.378   0.337   0.351   0.361   0.358   0.366   0.376   0.354   0.365   0.356   0.354   0.331   0.358   0.346   0.368   0.353   0.330   0.363   0.364   0.371   0.382   0.391   0.379   0.401   0.377   0.383   0.401   0.416   0.404   0.444   0.487   0.465   0.439   0.444   0.439   0.419   0.420   0.425   0.376   0.397   0.364   0.339   0.347   0.352   0.374   0.377   0.376   0.361   0.375   0.359   0.365   0.343   0.379   0.366   0.366   0.355   0.365   0.351   0.385   0.415   0.407   0.434   0.472   0.449   0.443   0.421   0.421   0.399   0.389   0.391   0.394   0.402   0.403   0.397   0.407   0.399   0.392   0.392   0.381   0.389   0.413   0.379   0.343   0.354   0.344   0.329   0.344   0.367   0.359   0.380   0.376   0.349   0.330   0.355   0.373   0.368   0.361   0.354   0.374   0.399   0.368   0.394   0.375   0.365   0.360   0.337   0.366   0.379   0.396   0.414   0.402   0.404   0.390   0.385   0.406   0.374   0.341   0.348   0.374   0.350   0.333   0.310   0.329   0.346   0.356   0.325   0.326   0.353   0.352   0.337   0.354   0.336   0.356   0.344   0.365   0.389   0.384   0.386   0.378   0.384   0.383   0.354   0.385   0.397   0.451   0.442   0.432   0.427   0.405   0.385   0.366   0.376   0.378   0.395   0.380   0.341   0.348
    75.40    0.438   0.463   0.457   0.442   0.428   0.415   0.408   0.423   0.435   0.421   0.412   0.402   0.419   0.423   0.435   0.429   0.418   0.407   0.414   0.419   0.426   0.412   0.402   0.377   0.387   0.410   0.388   0.381   0.402   0.392   0.369   0.352   0.330   0.346   0.359   0.363   0.356   0.332   0.337   0.343   0.345   0.376   0.370   0.388   0.397   0.416   0.392   0.354   0.358   0.358   0.361   0.360   0.353   0.340   0.361   0.368   0.373   0.395   0.411   0.403   0.391   0.393   0.393   0.406   0.412   0.442   0.466   0.461   0.461   0.427   0.428   0.440   0.435   0.427   0.417   0.394   0.409   0.367   0.371   0.366   0.367   0.374   0.380   0.364   0.392   0.399   0.391   0.389   0.409   0.383   0.365   0.365   0.381   0.358   0.392   0.402   0.406   0.413   0.467   0.460   0.432   0.380   0.390   0.380   0.391   0.384   0.370   0.389   0.416   0.406   0.428   0.438   0.408   0.401   0.401   0.378   0.367   0.373   0.363   0.360   0.344   0.352   0.351   0.365   0.362   0.346   0.340   0.334   0.355   0.340   0.372   0.366   0.357   0.369   0.379   0.388   0.380   0.384   0.374   0.356   0.373   0.364   0.355   0.372   0.393   0.385   0.386   0.404   0.393   0.382   0.396   0.370   0.379   0.376   0.356   0.362   0.331   0.305   0.329   0.332   0.327   0.315   0.325   0.350   0.364   0.352   0.329   0.344   0.359   0.366   0.350   0.385   0.407   0.382   0.368   0.376   0.382   0.385   0.386   0.385   0.421   0.450   0.418   0.413   0.415   0.393   0.353   0.369   0.368   0.391   0.386   0.373   0.364
    66.10    0.441   0.442   0.458   0.451   0.440   0.439   0.441   0.422   0.422   0.406   0.408   0.382   0.406   0.424   0.424   0.435   0.422   0.419   0.423   0.420   0.427   0.413   0.395   0.382   0.370   0.378   0.383   0.379   0.408   0.395   0.376   0.378   0.376   0.394   0.351   0.361   0.380   0.364   0.339   0.371   0.391   0.398   0.377   0.411   0.425   0.421   0.400   0.371   0.369   0.362   0.370   0.332   0.335   0.341   0.352   0.373   0.395   0.395   0.402   0.403   0.399   0.394   0.415   0.421   0.395   0.441   0.457   0.467   0.421   0.452   0.408   0.418   0.404   0.402   0.401   0.417   0.393   0.382   0.389   0.351   0.368   0.367   0.396   0.391   0.402   0.398   0.407   0.403   0.394   0.384   0.371   0.357   0.354   0.360   0.379   0.393   0.408   0.434   0.449   0.459   0.426   0.391   0.390   0.377   0.401   0.375   0.383   0.386   0.409   0.381   0.418   0.418   0.420   0.412   0.389   0.400   0.388   0.377   0.352   0.364   0.363   0.381   0.387   0.358   0.372   0.352   0.334   0.363   0.376   0.356   0.345   0.352   0.367   0.364   0.369   0.379   0.359   0.380   0.386   0.361   0.379   0.354   0.381   0.352   0.370   0.376   0.394   0.413   0.398   0.371   0.369   0.381   0.389   0.403   0.358   0.340   0.341   0.322   0.337   0.320   0.321   0.341   0.345   0.369   0.368   0.381   0.371   0.385   0.357   0.354   0.368   0.367   0.374   0.376   0.367   0.386   0.379   0.370   0.370   0.381   0.416   0.433   0.427   0.413   0.410   0.411   0.379   0.377   0.376   0.387   0.341   0.352   0.377
    56.80    0.489   0.484   0.476   0.454   0.416   0.430   0.412   0.414   0.422   0.444   0.427   0.418   0.396   0.391   0.413   0.415   0.433   0.408   0.392   0.421   0.434   0.442   0.409   0.371   0.378   0.395   0.403   0.374   0.404   0.396   0.387   0.386   0.370   0.384   0.374   0.386   0.378   0.372   0.370   0.381   0.407   0.391   0.390   0.397   0.399   0.392   0.398   0.379   0.382   0.383   0.374   0.357   0.329   0.348   0.360   0.388   0.370   0.408   0.398   0.398   0.400   0.441   0.419   0.442   0.437   0.424   0.464   0.444   0.430   0.418   0.420   0.436   0.411   0.405   0.404   0.380   0.402   0.388   0.382   0.367   0.365   0.356   0.380   0.401   0.419   0.400   0.410   0.402   0.383   0.349   0.365   0.386   0.381   0.376   0.368   0.387   0.414   0.442   0.455   0.450   0.448   0.422   0.417   0.401   0.396   0.397   0.402   0.394   0.369   0.395   0.424   0.437   0.397   0.442   0.435   0.414   0.390   0.391   0.365   0.391   0.402   0.415   0.383   0.375   0.374   0.345   0.330   0.352   0.351   0.347   0.353   0.361   0.378   0.370   0.359   0.347   0.349   0.355   0.371   0.373   0.378   0.379   0.376   0.366   0.380   0.387   0.364   0.385   0.392   0.368   0.375   0.368   0.362   0.376   0.363   0.365   0.342   0.335   0.332   0.328   0.356   0.344   0.378   0.389   0.359   0.366   0.369   0.384   0.362   0.371   0.373   0.336   0.353   0.359   0.354   0.354   0.368   0.353   0.349   0.388   0.391   0.406   0.412   0.406   0.379   0.388   0.380   0.379   0.379   0.382   0.371   0.330   0.362
    47.50    0.456   0.461   0.454   0.436   0.403   0.377   0.375   0.397   0.432   0.419   0.429   0.428   0.401   0.385   0.420   0.417   0.402   0.419   0.424   0.417   0.453   0.437   0.407   0.398   0.381   0.390   0.377   0.364   0.387   0.413   0.404   0.417   0.418   0.390   0.391   0.433   0.401   0.386   0.389   0.398   0.413   0.394   0.371   0.407   0.412   0.413   0.391   0.386   0.398   0.400   0.380   0.350   0.332   0.334   0.358   0.344   0.376   0.415   0.411   0.411   0.413   0.461   0.429   0.425   0.436   0.467   0.444   0.445   0.412   0.404   0.417   0.420   0.412   0.396   0.398   0.382   0.392   0.395   0.377   0.368   0.361   0.372   0.375   0.399   0.410   0.391   0.391   0.399   0.371   0.367   0.343   0.345   0.375   0.377   0.382   0.390   0.418   0.434   0.464   0.446   0.422   0.417   0.424   0.412   0.382   0.402   0.398   0.394   0.391   0.377   0.411   0.393   0.398   0.425   0.440   0.420   0.413   0.397   0.371   0.392   0.410   0.416   0.398   0.385   0.390   0.352   0.363   0.348   0.335   0.332   0.340   0.342   0.389   0.380   0.344   0.329   0.357   0.341   0.361   0.373   0.371   0.388   0.382   0.365   0.362   0.368   0.378   0.382   0.380   0.401   0.398   0.376   0.373   0.353   0.356   0.382   0.340   0.356   0.362   0.341   0.334   0.361   0.358   0.355   0.372   0.366   0.350   0.356   0.373   0.400   0.378   0.372   0.387   0.397   0.403   0.369   0.346   0.352   0.378   0.385   0.389   0.395   0.407   0.376   0.374   0.378   0.385   0.372   0.382   0.391   0.377   0.335   0.340
    38.20    0.430   0.424   0.433   0.404   0.380   0.379   0.352   0.373   0.399   0.431   0.418   0.420   0.392   0.391   0.394   0.425   0.419   0.418   0.449   0.436   0.445   0.418   0.387   0.397   0.369   0.369   0.377   0.357   0.347   0.381   0.398   0.418   0.410   0.413   0.396   0.412   0.383   0.415   0.413   0.425   0.420   0.422   0.400   0.397   0.405   0.397   0.393   0.398   0.391   0.400   0.357   0.347   0.336   0.335   0.321   0.368   0.381   0.386   0.404   0.450   0.474   0.476   0.469   0.471   0.462   0.456   0.428   0.419   0.411   0.376   0.379   0.385   0.386   0.380   0.398   0.407   0.385   0.380   0.364   0.375   0.387   0.367   0.375   0.390   0.390   0.389   0.364   0.387   0.401   0.384   0.365   0.362   0.387   0.377   0.402   0.416   0.441   0.448   0.430   0.438   0.431   0.436   0.409   0.384   0.378   0.403   0.417   0.397   0.424   0.421   0.409   0.413   0.396   0.409   0.429   0.431   0.418   0.412   0.410   0.394   0.407   0.412   0.365   0.368   0.369   0.361   0.370   0.347   0.331   0.351   0.350   0.368   0.411   0.375   0.366   0.357   0.361   0.341   0.347   0.360   0.359   0.366   0.371   0.354   0.349   0.382   0.391   0.356   0.374   0.387   0.387   0.371   0.386   0.350   0.363   0.384   0.382   0.387   0.372   0.383   0.371   0.355   0.378   0.361   0.350   0.326   0.347   0.349   0.380   0.390   0.366   0.372   0.407   0.414   0.404   0.366   0.345   0.356   0.369   0.397   0.391   0.398   0.409   0.372   0.371   0.380   0.395   0.375   0.390   0.375   0.357   0.358   0.346
    28.90    0.402   0.431   0.393   0.413   0.389   0.381   0.372   0.357   0.391   0.415   0.416   0.386   0.399   0.393   0.384   0.403   0.413   0.423   0.446   0.436   0.413   0.394   0.383   0.391   0.353   0.373   0.368   0.346   0.374   0.374   0.388   0.400   0.427   0.421   0.435   0.416   0.408   0.386   0.398   0.408   0.404   0.419   0.408   0.424   0.409   0.403   0.400   0.412   0.400   0.385   0.389   0.365   0.318   0.319   0.322   0.369   0.399   0.399   0.430   0.420   0.465   0.439   0.453   0.471   0.460   0.443   0.419   0.383   0.369   0.374   0.338   0.391   0.371   0.388   0.403   0.409   0.383   0.355   0.357   0.354   0.381   0.364   0.345   0.352   0.358   0.364   0.342   0.357   0.394   0.392   0.382   0.384   0.384   0.403   0.446   0.438   0.433   0.446   0.448   0.422   0.445   0.448   0.397   0.385   0.391   0.412   0.411   0.419   0.432   0.419   0.418   0.406   0.403   0.422   0.430   0.426   0.421   0.401   0.413   0.389   0.407   0.405   0.371   0.377   0.364   0.363   0.362   0.353   0.343   0.354   0.385   0.385   0.411   0.386   0.385   0.380   0.367   0.387   0.368   0.391   0.376   0.354   0.349   0.353   0.361   0.367   0.367   0.360   0.360   0.391   0.377   0.362   0.366   0.351   0.358   0.369   0.390   0.386   0.368   0.377   0.387   0.388   0.380   0.374   0.372   0.359   0.347   0.364   0.350   0.362   0.389   0.392   0.413   0.407   0.413   0.392   0.362   0.353   0.375   0.391   0.404   0.393   0.385   0.385   0.380   0.356   0.380   0.353   0.365   0.387   0.395   0.360   0.370
    19.60    0.393   0.408   0.412   0.426   0.390   0.382   0.333   0.339   0.375   0.354   0.397   0.388   0.400   0.375   0.387   0.412   0.428   0.450   0.427   0.402   0.378   0.385   0.407   0.384   0.356   0.373   0.378   0.382   0.399   0.379   0.400   0.405   0.425   0.434   0.433   0.420   0.387   0.372   0.401   0.403   0.412   0.395   0.404   0.390   0.370   0.384   0.409   0.405   0.414   0.429   0.411   0.382   0.401   0.381   0.383   0.410   0.422   0.436   0.426   0.416   0.443   0.441   0.426   0.437   0.419   0.421   0.399   0.365   0.345   0.363   0.373   0.364   0.405   0.387   0.401   0.425   0.406   0.366   0.383   0.367   0.349   0.353   0.340   0.318   0.316   0.359   0.366   0.345   0.394   0.384   0.387   0.378   0.391   0.399   0.429   0.435   0.440   0.445   0.460   0.444   0.461   0.451   0.465   0.432   0.444   0.408   0.414   0.402   0.398   0.384   0.373   0.375   0.413   0.435   0.458   0.438   0.435   0.399   0.403   0.409   0.384   0.398   0.379   0.361   0.373   0.366   0.377   0.372   0.386   0.358   0.367   0.385   0.382   0.401   0.390   0.339   0.362   0.368   0.367   0.390   0.356   0.350   0.347   0.354   0.368   0.353   0.349   0.374   0.378   0.383   0.367   0.357   0.340   0.354   0.350   0.373   0.364   0.401   0.384   0.398   0.390   0.407   0.364   0.355   0.341   0.339   0.349   0.364   0.357   0.358   0.382   0.390   0.396   0.421   0.407   0.408   0.393   0.363   0.366   0.407   0.391   0.406   0.422   0.396   0.385   0.371   0.351   0.357   0.354   0.356   0.364   0.354   0.355
    10.30    0.371   0.402   0.411   0.417   0.369   0.366   0.341   0.330   0.316   0.369   0.388   0.397   0.404   0.376   0.385   0.379   0.402   0.403   0.382   0.390   0.378   0.388   0.388   0.370   0.350   0.377   0.399   0.401   0.418   0.385   0.413   0.408   0.406   0.414   0.427   0.425   0.421   0.394   0.375   0.420   0.407   0.384   0.388   0.415   0.408   0.378   0.411   0.421   0.415   0.404   0.401   0.387   0.408   0.414   0.423   0.435   0.453   0.446   0.409   0.437   0.416   0.429   0.433   0.428   0.421   0.391   0.403   0.385   0.360   0.358   0.365   0.379   0.382   0.394   0.393   0.396   0.403   0.384   0.352   0.370   0.341   0.340   0.364   0.352   0.351   0.319   0.324   0.351   0.380   0.385   0.385   0.378   0.374   0.391   0.406   0.423   0.439   0.436   0.435   0.429   0.437   0.482   0.499   0.435   0.447   0.426   0.433   0.417   0.374   0.372   0.366   0.382   0.408   0.439   0.444   0.467   0.423   0.421   0.433   0.412   0.406   0.378   0.375   0.358   0.392   0.367   0.392   0.399   0.380   0.382   0.370   0.370   0.376   0.403   0.387   0.363   0.344   0.346   0.347   0.371   0.347   0.364   0.354   0.340   0.344   0.362   0.365   0.366   0.374   0.389   0.397   0.367   0.349   0.374   0.377   0.356   0.347   0.378   0.395   0.399   0.380   0.377   0.376   0.379   0.348   0.348   0.371   0.373   0.345   0.370   0.379   0.382   0.428   0.406   0.411   0.407   0.404   0.379   0.398   0.412   0.402   0.416   0.401   0.371   0.371   0.381   0.379   0.357   0.343   0.337   0.332   0.327   0.334
     1.00    0.382   0.386   0.393   0.381   0.391   0.360   0.335   0.325   0.335   0.351   0.365   0.395   0.366   0.395   0.365   0.365   0.376   0.360   0.371   0.359   0.357   0.355   0.351   0.364   0.383   0.407   0.409   0.420   0.445   0.402   0.399   0.379   0.422   0.388   0.420   0.422   0.435   0.403   0.384   0.395   0.386   0.395   0.417   0.389   0.392   0.379   0.402   0.420   0.400   0.381   0.391   0.382   0.384   0.393   0.415   0.431   0.456   0.440   0.418   0.413   0.439   0.418   0.423   0.391   0.385   0.368   0.372   0.390   0.371   0.381   0.366   0.355   0.359   0.381   0.396   0.384   0.381   0.385   0.367   0.358   0.353   0.344   0.368   0.349   0.350   0.325   0.338   0.346   0.349   0.375   0.372   0.350   0.369   0.381   0.374   0.386   0.414   0.424   0.446   0.466   0.454   0.468   0.453   0.433   0.417   0.416   0.433   0.402   0.386   0.391   0.395   0.399   0.410   0.390   0.426   0.459   0.435   0.445   0.436   0.427   0.375   0.377   0.379   0.401   0.400   0.379   0.400   0.377   0.386   0.383   0.384   0.400   0.386   0.386   0.371   0.362   0.344   0.341   0.382   0.374   0.349   0.344   0.333   0.336   0.316   0.347   0.367   0.386   0.403   0.403   0.403   0.382   0.377   0.379   0.392   0.397   0.382   0.371   0.385   0.393   0.406   0.402   0.380   0.376   0.371   0.358   0.364   0.378   0.336   0.362   0.382   0.415   0.420   0.424   0.427   0.435   0.422   0.400   0.403   0.391   0.394   0.405   0.372   0.356   0.356   0.362   0.360   0.345   0.354   0.361   0.325   0.345   0.338

   Height   Standard deviation at grid points for the v component:
   354.40    0.348   0.316   0.332   0.328   0.295   0.304   0.297   0.292   0.292   0.305   0.295   0.301   0.285   0.294   0.302   0.287   0.308   0.311   0.317   0.301   0.321   0.305   0.296   0.304   0.322   0.313   0.312   0.295   0.295   0.294   0.292   0.289   0.275   0.272   0.286   0.304   0.316   0.323   0.308   0.317   0.316   0.315   0.320   0.305   0.312   0.307   0.311   0.294   0.293   0.302   0.311   0.322   0.323   0.327   0.313   0.311   0.309   0.317   0.322   0.318   0.305   0.305   0.304   0.321   0.320   0.326   0.311   0.302   0.288   0.291   0.291   0.270   0.275   0.282   0.295   0.299   0.290   0.272   0.274   0.283   0.293   0.313   0.304   0.302   0.310   0.299   0.314   0.320   0.331   0.327   0.323   0.326   0.340   0.334   0.334   0.335   0.336   0.305   0.302   0.309   0.308   0.300   0.298   0.285   0.293   0.285   0.282   0.282   0.282   0.279   0.276   0.283   0.286   0.289   0.286   0.290   0.293   0.299   0.289   0.288   0.288   0.313   0.312   0.322   0.306   0.320   0.332   0.329   0.346   0.325   0.349   0.340   0.321   0.328   0.338   0.337   0.339   0.315   0.312   0.325   0.309   0.318   0.317   0.294   0.281   0.298   0.309   0.293   0.297   0.306   0.290   0.281   0.289   0.297   0.296   0.294   0.306   0.305   0.312   0.296   0.302   0.285   0.292   0.290   0.293   0.301   0.298   0.278   0.275   0.286   0.303   0.293   0.316   0.319   0.301   0.297   0.310   0.311   0.306   0.317   0.317   0.333   0.316   0.323   0.306   0.297   0.286   0.294   0.288   0.286   0.305   0.309   0.317
   345.10    0.330   0.318   0.305   0.298   0.298   0.300   0.295   0.292   0.287   0.305   0.303   0.294   0.290   0.281   0.282   0.280   0.295   0.309   0.310   0.305   0.326   0.305   0.295   0.309   0.326   0.330   0.318   0.325   0.300   0.290   0.286   0.285   0.278   0.271   0.291   0.292   0.306   0.303   0.315   0.311   0.322   0.307   0.307   0.317   0.316   0.298   0.300   0.298   0.308   0.302   0.305   0.301   0.320   0.326   0.332   0.324   0.329   0.318   0.319   0.304   0.302   0.293   0.298   0.303   0.328   0.323   0.317   0.293   0.285   0.288   0.292   0.289   0.284   0.283   0.289   0.279   0.286   0.286   0.260   0.276   0.288   0.301   0.307   0.321   0.310   0.317   0.316   0.322   0.337   0.340   0.318   0.330   0.331   0.332   0.347   0.333   0.319   0.305   0.316   0.307   0.314   0.313   0.305   0.286   0.278   0.284   0.280   0.290   0.285   0.290   0.285   0.296   0.294   0.294   0.305   0.309   0.301   0.302   0.317   0.305   0.296   0.316   0.313   0.336   0.324   0.335   0.343   0.334   0.336   0.330   0.347   0.358   0.351   0.353   0.366   0.342   0.340   0.324   0.320   0.310   0.314   0.316   0.311   0.301   0.305   0.289   0.304   0.311   0.307   0.296   0.293   0.284   0.291   0.297   0.306   0.316   0.309   0.309   0.312   0.309   0.304   0.293   0.273   0.283   0.293   0.300   0.298   0.273   0.277   0.273   0.293   0.307   0.309   0.295   0.297   0.290   0.301   0.306   0.313   0.321   0.320   0.324   0.320   0.322   0.311   0.300   0.299   0.284   0.290   0.299   0.306   0.311   0.316
   335.80    0.312   0.323   0.319   0.295   0.292   0.294   0.279   0.288   0.304   0.294   0.296   0.278   0.285   0.297   0.295   0.286   0.299   0.311   0.310   0.319   0.323   0.308   0.303   0.302   0.327   0.326   0.320   0.326   0.304   0.313   0.277   0.287   0.277   0.286   0.292   0.297   0.314   0.316   0.315   0.310   0.324   0.304   0.314   0.300   0.289   0.301   0.288   0.299   0.296   0.290   0.301   0.314   0.300   0.306   0.322   0.330   0.324   0.323   0.316   0.309   0.296   0.292   0.295   0.295   0.307   0.321   0.299   0.300   0.306   0.298   0.293   0.286   0.284   0.275   0.280   0.283   0.290   0.261   0.256   0.263   0.279   0.292   0.303   0.302   0.307   0.310   0.310   0.325   0.337   0.344   0.337   0.321   0.319   0.338   0.317   0.333   0.328   0.322   0.335   0.320   0.329   0.327   0.304   0.299   0.297   0.291   0.284   0.279   0.293   0.293   0.283   0.299   0.304   0.296   0.293   0.284   0.289   0.299   0.318   0.320   0.318   0.312   0.320   0.334   0.322   0.337   0.332   0.337   0.332   0.331   0.357   0.351   0.354   0.339   0.350   0.341   0.325   0.312   0.301   0.290   0.297   0.316   0.318   0.305   0.309   0.299   0.300   0.308   0.301   0.305   0.301   0.302   0.308   0.305   0.304   0.314   0.296   0.301   0.297   0.297   0.299   0.306   0.286   0.272   0.263   0.278   0.289   0.293   0.291   0.302   0.310   0.302   0.304   0.290   0.292   0.297   0.295   0.303   0.310   0.316   0.305   0.297   0.303   0.307   0.292   0.293   0.304   0.283   0.300   0.317   0.318   0.328   0.323
   326.50    0.305   0.316   0.308   0.303   0.281   0.272   0.262   0.290   0.313   0.295   0.294   0.289   0.295   0.282   0.294   0.287   0.296   0.303   0.319   0.329   0.326   0.315   0.295   0.298   0.328   0.331   0.311   0.327   0.316   0.295   0.286   0.277   0.285   0.295   0.295   0.301   0.305   0.319   0.315   0.314   0.320   0.317   0.309   0.284   0.293   0.301   0.292   0.287   0.300   0.301   0.315   0.303   0.302   0.302   0.328   0.322   0.322   0.326   0.314   0.306   0.300   0.307   0.318   0.316   0.308   0.322   0.315   0.302   0.300   0.306   0.299   0.310   0.289   0.281   0.278   0.288   0.270   0.268   0.262   0.256   0.262   0.292   0.293   0.291   0.308   0.296   0.308   0.314   0.332   0.325   0.327   0.321   0.314   0.332   0.333   0.326   0.318   0.327   0.317   0.310   0.316   0.324   0.304   0.305   0.292   0.280   0.295   0.287   0.279   0.287   0.300   0.298   0.301   0.305   0.307   0.294   0.283   0.293   0.304   0.313   0.323   0.345   0.333   0.331   0.325   0.319   0.338   0.329   0.324   0.341   0.331   0.344   0.349   0.345   0.344   0.342   0.334   0.317   0.288   0.294   0.304   0.319   0.320   0.320   0.329   0.318   0.313   0.302   0.307   0.302   0.308   0.327   0.334   0.322   0.328   0.309   0.314   0.312   0.309   0.296   0.304   0.298   0.294   0.282   0.273   0.284   0.284   0.280   0.292   0.290   0.290   0.300   0.322   0.307   0.308   0.293   0.296   0.296   0.295   0.299   0.301   0.300   0.294   0.296   0.303   0.304   0.306   0.296   0.310   0.318   0.317   0.342   0.341
[...]
   103.30    0.184   0.191   0.189   0.189   0.192   0.189   0.188   0.189   0.185   0.193   0.190   0.186   0.185   0.187   0.187   0.183   0.184   0.187   0.182   0.186   0.182   0.183   0.187   0.176   0.183   0.182   0.185   0.187   0.189   0.192   0.192   0.191   0.191   0.190   0.189   0.194   0.191   0.190   0.191   0.183   0.190   0.186   0.192   0.187   0.190   0.191   0.198   0.197   0.188   0.183   0.184   0.189   0.189   0.190   0.187   0.185   0.184   0.190   0.181   0.190   0.194   0.189   0.191   0.193   0.193   0.198   0.195   0.194   0.195   0.193   0.193   0.190   0.197   0.192   0.186   0.187   0.187   0.190   0.191   0.191   0.182   0.180   0.187   0.188   0.192   0.193   0.191   0.194   0.200   0.192   0.192   0.193   0.190   0.192   0.189   0.186   0.185   0.187   0.187   0.180   0.185   0.193   0.185   0.190   0.191   0.190   0.185   0.181   0.189   0.191   0.190   0.191   0.191   0.188   0.186   0.187   0.184   0.183   0.192   0.189   0.191   0.193   0.193   0.187   0.193   0.197   0.199   0.196   0.194   0.193   0.189   0.193   0.181   0.185   0.186   0.187   0.188   0.193   0.196   0.198   0.199   0.195   0.198   0.195   0.188   0.193   0.196   0.194   0.186   0.188   0.193   0.191   0.190   0.184   0.185   0.186   0.187   0.187   0.194   0.196   0.187   0.189   0.190   0.185   0.182   0.182   0.183   0.191   0.188   0.191   0.188   0.191   0.192   0.186   0.187   0.190   0.187   0.187   0.184   0.188   0.188   0.184   0.186   0.191   0.193   0.193   0.192   0.188   0.188   0.188   0.194   0.194   0.194
    94.00    0.185   0.188   0.189   0.186   0.195   0.193   0.188   0.185   0.189   0.183   0.184   0.188   0.189   0.186   0.186   0.183   0.182   0.189   0.186   0.184   0.187   0.190   0.182   0.176   0.175   0.185   0.186   0.186   0.188   0.195   0.196   0.197   0.197   0.188   0.187   0.188   0.192   0.190   0.185   0.187   0.189   0.193   0.191   0.196   0.197   0.196   0.194   0.185   0.190   0.188   0.183   0.192   0.192   0.180   0.184   0.185   0.187   0.195   0.198   0.197   0.195   0.192   0.192   0.196   0.195   0.193   0.194   0.196   0.196   0.189   0.196   0.195   0.197   0.197   0.184   0.183   0.188   0.184   0.185   0.182   0.189   0.188   0.187   0.191   0.191   0.200   0.188   0.198   0.197   0.195   0.193   0.194   0.197   0.194   0.193   0.190   0.192   0.190   0.191   0.187   0.191   0.187   0.188   0.186   0.190   0.187   0.187   0.183   0.190   0.188   0.190   0.188   0.186   0.191   0.191   0.191   0.182   0.185   0.185   0.197   0.193   0.187   0.186   0.185   0.186   0.192   0.195   0.196   0.191   0.186   0.189   0.189   0.185   0.190   0.186   0.193   0.192   0.193   0.194   0.200   0.200   0.199   0.192   0.189   0.186   0.189   0.193   0.189   0.190   0.189   0.194   0.195   0.188   0.187   0.185   0.193   0.191   0.187   0.184   0.191   0.191   0.188   0.190   0.188   0.187   0.187   0.184   0.183   0.185   0.186   0.187   0.191   0.187   0.187   0.187   0.193   0.195   0.191   0.185   0.186   0.191   0.192   0.188   0.186   0.192   0.197   0.197   0.192   0.195   0.199   0.200   0.193   0.196
    84.70    0.185   0.188   0.184   0.186   0.194   0.194   0.189   0.193   0.189   0.187   0.185   0.181   0.180   0.192   0.183   0.183   0.177   0.188   0.187   0.186   0.189   0.188   0.184   0.187   0.181   0.188   0.187   0.185   0.196   0.195   0.200   0.198   0.187   0.186   0.186   0.186   0.186   0.191   0.188   0.192   0.194   0.197   0.190   0.196   0.196   0.189   0.187   0.189   0.187   0.188   0.193   0.193   0.190   0.183   0.182   0.182   0.186   0.191   0.189   0.190   0.196   0.192   0.193   0.190   0.190   0.190   0.199   0.193   0.195   0.198   0.197   0.197   0.195   0.196   0.197   0.190   0.189   0.191   0.191   0.185   0.189   0.189   0.190   0.192   0.193   0.197   0.196   0.196   0.201   0.207   0.199   0.194   0.200   0.193   0.196   0.197   0.196   0.194   0.191   0.197   0.193   0.194   0.192   0.199   0.195   0.191   0.186   0.187   0.188   0.192   0.189   0.193   0.194   0.194   0.194   0.195   0.190   0.188   0.193   0.192   0.188   0.189   0.191   0.189   0.186   0.190   0.192   0.198   0.193   0.185   0.191   0.188   0.186   0.183   0.191   0.195   0.191   0.197   0.194   0.198   0.198   0.191   0.187   0.185   0.189   0.190   0.193   0.190   0.186   0.190   0.190   0.189   0.185   0.187   0.192   0.189   0.195   0.190   0.186   0.190   0.193   0.185   0.184   0.186   0.187   0.189   0.184   0.181   0.182   0.183   0.187   0.188   0.189   0.185   0.192   0.194   0.193   0.187   0.178   0.185   0.191   0.188   0.187   0.189   0.191   0.196   0.201   0.200   0.201   0.207   0.202   0.203   0.197
    75.40    0.185   0.188   0.190   0.198   0.193   0.194   0.192   0.185   0.194   0.188   0.189   0.183   0.192   0.195   0.191   0.196   0.188   0.188   0.198   0.190   0.190   0.185   0.188   0.185   0.182   0.185   0.183   0.186   0.190   0.196   0.195   0.199   0.196   0.190   0.179   0.188   0.193   0.183   0.186   0.189   0.194   0.188   0.187   0.193   0.188   0.185   0.185   0.188   0.186   0.184   0.188   0.187   0.181   0.186   0.183   0.172   0.185   0.189   0.183   0.185   0.191   0.180   0.188   0.189   0.186   0.191   0.196   0.197   0.201   0.201   0.204   0.196   0.199   0.201   0.193   0.190   0.197   0.192   0.193   0.186   0.183   0.190   0.186   0.192   0.194   0.201   0.200   0.199   0.202   0.203   0.201   0.197   0.197   0.195   0.202   0.196   0.193   0.200   0.198   0.195   0.194   0.194   0.197   0.198   0.194   0.186   0.190   0.190   0.185   0.191   0.186   0.189   0.189   0.193   0.196   0.192   0.190   0.188   0.189   0.187   0.187   0.191   0.193   0.192   0.191   0.192   0.192   0.196   0.193   0.187   0.198   0.196   0.185   0.191   0.196   0.197   0.193   0.190   0.191   0.197   0.191   0.185   0.183   0.182   0.186   0.191   0.194   0.189   0.182   0.191   0.184   0.185   0.185   0.186   0.188   0.199   0.195   0.188   0.191   0.188   0.185   0.188   0.187   0.176   0.184   0.193   0.191   0.186   0.184   0.185   0.189   0.190   0.185   0.192   0.188   0.192   0.191   0.186   0.182   0.182   0.182   0.188   0.187   0.193   0.189   0.191   0.196   0.198   0.199   0.203   0.199   0.200   0.196
    66.10    0.186   0.192   0.188   0.194   0.194   0.186   0.184   0.191   0.188   0.191   0.177   0.184   0.191   0.184   0.187   0.195   0.186   0.190   0.191   0.190   0.191   0.185   0.187   0.193   0.184   0.186   0.192   0.192   0.190   0.197   0.201   0.197   0.193   0.198   0.183   0.190   0.193   0.191   0.190   0.190   0.188   0.190   0.189   0.189   0.185   0.185   0.184   0.187   0.180   0.186   0.187   0.178   0.180   0.180   0.183   0.182   0.183   0.180   0.180   0.181   0.184   0.195   0.192   0.191   0.191   0.194   0.198   0.200   0.199   0.200   0.199   0.193   0.201   0.201   0.203   0.199   0.194   0.195   0.192   0.187   0.188   0.188   0.186   0.190   0.197   0.201   0.201   0.200   0.202   0.198   0.197   0.188   0.199   0.196   0.193   0.191   0.192   0.193   0.194   0.198   0.193   0.197   0.195   0.199   0.197   0.198   0.196   0.193   0.190   0.191   0.196   0.186   0.189   0.188   0.198   0.192   0.185   0.190   0.187   0.196   0.200   0.192   0.200   0.197   0.194   0.190   0.190   0.191   0.187   0.186   0.189   0.193   0.189   0.194   0.191   0.193   0.192   0.195   0.187   0.189   0.191   0.196   0.193   0.189   0.189   0.195   0.187   0.189   0.186   0.191   0.192   0.191   0.193   0.187   0.189   0.188   0.197   0.190   0.190   0.181   0.183   0.185   0.189   0.190   0.180   0.191   0.191   0.184   0.186   0.182   0.190   0.192   0.191   0.194   0.192   0.193   0.191   0.188   0.185   0.182   0.182   0.184   0.190   0.190   0.189   0.192   0.202   0.196   0.200   0.208   0.205   0.200   0.190
    56.80    0.190   0.189   0.192   0.188   0.180   0.186   0.182   0.187   0.189   0.189   0.186   0.187   0.190   0.193   0.187   0.185   0.188   0.187   0.189   0.187   0.181   0.188   0.185   0.186   0.184   0.184   0.186   0.190   0.188   0.187   0.193   0.193   0.199   0.199   0.192   0.193   0.189   0.191   0.193   0.191   0.194   0.197   0.187   0.186   0.185   0.183   0.183   0.185   0.186   0.180   0.182   0.182   0.183   0.190   0.177   0.179   0.179   0.177   0.183   0.184   0.188   0.190   0.190   0.184   0.186   0.193   0.201   0.197   0.205   0.202   0.198   0.196   0.201   0.197   0.197   0.199   0.187   0.197   0.191   0.191   0.191   0.186   0.190   0.200   0.201   0.197   0.202   0.199   0.202   0.205   0.200   0.203   0.199   0.196   0.188   0.186   0.195   0.193   0.187   0.192   0.204   0.197   0.201   0.202   0.202   0.194   0.193   0.193   0.192   0.195   0.198   0.190   0.190   0.189   0.189   0.193   0.185   0.188   0.187   0.189   0.194   0.197   0.195   0.196   0.191   0.190   0.195   0.196   0.199   0.191   0.189   0.187   0.189   0.193   0.193   0.188   0.192   0.191   0.193   0.190   0.193   0.195   0.193   0.192   0.188   0.194   0.196   0.195   0.187   0.189   0.187   0.195   0.197   0.188   0.187   0.190   0.196   0.191   0.183   0.179   0.181   0.180   0.189   0.191   0.184   0.194   0.191   0.189   0.193   0.183   0.191   0.190   0.194   0.191   0.195   0.191   0.194   0.185   0.191   0.185   0.187   0.184   0.187   0.195   0.192   0.193   0.193   0.195   0.208   0.201   0.201   0.192   0.194
    47.50    0.186   0.190   0.185   0.189   0.184   0.184   0.190   0.190   0.194   0.191   0.201   0.196   0.197   0.196   0.192   0.177   0.185   0.196   0.189   0.184   0.181   0.189   0.189   0.189   0.186   0.188   0.184   0.180   0.190   0.194   0.193   0.194   0.187   0.192   0.187   0.185   0.185   0.185   0.187   0.181   0.185   0.189   0.195   0.190   0.188   0.188   0.184   0.185   0.182   0.180   0.184   0.181   0.186   0.184   0.181   0.181   0.175   0.179   0.182   0.181   0.184   0.191   0.190   0.186   0.192   0.189   0.191   0.196   0.196   0.196   0.198   0.204   0.203   0.200   0.192   0.191   0.194   0.196   0.198   0.194   0.189   0.190   0.193   0.198   0.196   0.190   0.194   0.193   0.190   0.195   0.199   0.200   0.203   0.194   0.190   0.193   0.192   0.189   0.188   0.194   0.199   0.191   0.197   0.196   0.195   0.196   0.197   0.193   0.193   0.191   0.198   0.186   0.181   0.187   0.185   0.184   0.190   0.191   0.194   0.193   0.189   0.194   0.192   0.196   0.196   0.192   0.191   0.197   0.192   0.192   0.189   0.193   0.194   0.193   0.189   0.187   0.192   0.194   0.194   0.197   0.198   0.191   0.193   0.191   0.195   0.196   0.192   0.197   0.190   0.191   0.187   0.196   0.190   0.193   0.196   0.190   0.189   0.183   0.182   0.182   0.181   0.184   0.189   0.188   0.185   0.195   0.188   0.187   0.188   0.194   0.199   0.193   0.188   0.191   0.195   0.200   0.195   0.194   0.194   0.193   0.185   0.193   0.191   0.189   0.191   0.191   0.195   0.195   0.199   0.196   0.201   0.192   0.184
    38.20    0.184   0.185   0.191   0.188   0.193   0.182   0.188   0.192   0.191   0.194   0.200   0.204   0.202   0.195   0.189   0.192   0.188   0.193   0.188   0.187   0.181   0.190   0.185   0.181   0.188   0.186   0.187   0.194   0.190   0.194   0.195   0.196   0.186   0.192   0.188   0.189   0.188   0.187   0.193   0.185   0.186   0.190   0.189   0.187   0.188   0.184   0.183   0.187   0.184   0.182   0.183   0.182   0.182   0.183   0.190   0.175   0.179   0.186   0.186   0.187   0.190   0.191   0.193   0.194   0.191   0.192   0.191   0.196   0.199   0.190   0.195   0.197   0.205   0.202   0.198   0.198   0.187   0.194   0.194   0.194   0.190   0.192   0.194   0.199   0.197   0.193   0.189   0.195   0.195   0.192   0.194   0.202   0.204   0.198   0.197   0.193   0.190   0.188   0.190   0.188   0.191   0.192   0.193   0.190   0.198   0.191   0.186   0.195   0.189   0.180   0.187   0.187   0.182   0.189   0.185   0.185   0.183   0.189   0.195   0.196   0.194   0.198   0.192   0.192   0.194   0.191   0.187   0.195   0.190   0.188   0.195   0.196   0.201   0.194   0.190   0.189   0.193   0.187   0.190   0.198   0.191   0.192   0.199   0.196   0.192   0.192   0.190   0.192   0.194   0.195   0.195   0.192   0.195   0.194   0.191   0.195   0.192   0.188   0.179   0.180   0.180   0.177   0.183   0.188   0.188   0.193   0.188   0.190   0.187   0.194   0.196   0.190   0.190   0.192   0.196   0.195   0.201   0.192   0.195   0.195   0.196   0.196   0.198   0.197   0.195   0.191   0.197   0.189   0.199   0.185   0.193   0.189   0.187
    28.90    0.185   0.184   0.186   0.190   0.186   0.188   0.190   0.187   0.184   0.192   0.199   0.196   0.197   0.193   0.191   0.184   0.186   0.186   0.190   0.188   0.185   0.183   0.186   0.185   0.184   0.190   0.192   0.197   0.196   0.200   0.193   0.193   0.187   0.189   0.197   0.190   0.192   0.188   0.189   0.187   0.188   0.192   0.187   0.187   0.185   0.185   0.186   0.187   0.183   0.186   0.182   0.181   0.185   0.183   0.188   0.182   0.186   0.188   0.185   0.186   0.196   0.188   0.191   0.200   0.200   0.193   0.195   0.191   0.198   0.187   0.197   0.201   0.198   0.200   0.199   0.198   0.196   0.195   0.198   0.190   0.197   0.197   0.195   0.197   0.196   0.192   0.186   0.193   0.193   0.193   0.188   0.195   0.199   0.199   0.197   0.197   0.188   0.188   0.187   0.188   0.189   0.191   0.191   0.194   0.196   0.191   0.195   0.201   0.191   0.188   0.185   0.187   0.190   0.198   0.193   0.192   0.192   0.191   0.192   0.197   0.193   0.202   0.193   0.187   0.192   0.192   0.184   0.193   0.193   0.188   0.188   0.195   0.200   0.192   0.194   0.192   0.193   0.188   0.187   0.191   0.191   0.194   0.199   0.195   0.193   0.192   0.191   0.192   0.195   0.198   0.195   0.194   0.195   0.196   0.199   0.195   0.198   0.198   0.192   0.188   0.185   0.184   0.187   0.185   0.185   0.191   0.198   0.189   0.191   0.191   0.189   0.187   0.193   0.188   0.191   0.196   0.190   0.200   0.196   0.198   0.199   0.198   0.201   0.200   0.191   0.193   0.186   0.191   0.193   0.191   0.188   0.187   0.183
    19.60    0.190   0.184   0.187   0.190   0.189   0.185   0.185   0.189   0.184   0.185   0.191   0.191   0.189   0.190   0.190   0.187   0.186   0.193   0.191   0.188   0.188   0.185   0.183   0.195   0.189   0.193   0.201   0.200   0.200   0.194   0.190   0.189   0.190   0.189   0.190   0.195   0.195   0.193   0.189   0.184   0.184   0.185   0.185   0.183   0.180   0.181   0.187   0.195   0.193   0.190   0.184   0.184   0.182   0.189   0.183   0.186   0.188   0.186   0.190   0.194   0.194   0.194   0.194   0.195   0.200   0.196   0.197   0.191   0.196   0.197   0.206   0.203   0.202   0.205   0.204   0.205   0.198   0.192   0.199   0.195   0.194   0.192   0.198   0.196   0.199   0.196   0.195   0.195   0.193   0.185   0.185   0.190   0.193   0.188   0.195   0.191   0.193   0.191   0.188   0.190   0.189   0.193   0.192   0.195   0.191   0.193   0.194   0.204   0.197   0.198   0.189   0.184   0.187   0.191   0.198   0.192   0.188   0.184   0.188   0.189   0.197   0.202   0.194   0.195   0.192   0.195   0.188   0.188   0.186   0.187   0.182   0.184   0.192   0.193   0.187   0.192   0.189   0.196   0.194   0.187   0.190   0.192   0.190   0.194   0.197   0.196   0.185   0.197   0.193   0.195   0.196   0.197   0.198   0.203   0.198   0.191   0.199   0.191   0.200   0.198   0.186   0.191   0.188   0.190   0.195   0.191   0.193   0.190   0.190   0.189   0.189   0.182   0.187   0.184   0.189   0.191   0.196   0.191   0.197   0.192   0.194   0.199   0.203   0.197   0.189   0.190   0.185   0.192   0.189   0.192   0.191   0.182   0.180
    10.30    0.179   0.187   0.193   0.190   0.186   0.187   0.184   0.189   0.182   0.185   0.190   0.195   0.193   0.188   0.185   0.184   0.184   0.183   0.184   0.190   0.195   0.198   0.192   0.191   0.191   0.192   0.197   0.206   0.199   0.187   0.188   0.182   0.182   0.183   0.190   0.179   0.187   0.192   0.187   0.185   0.189   0.189   0.183   0.183   0.183   0.189   0.188   0.183   0.187   0.182   0.190   0.187   0.181   0.182   0.185   0.185   0.187   0.186   0.190   0.190   0.192   0.196   0.187   0.197   0.202   0.202   0.201   0.195   0.189   0.198   0.204   0.194   0.206   0.201   0.197   0.200   0.203   0.197   0.190   0.189   0.194   0.193   0.193   0.195   0.198   0.195   0.198   0.197   0.191   0.190   0.187   0.184   0.185   0.188   0.192   0.194   0.191   0.193   0.193   0.194   0.195   0.196   0.190   0.187   0.194   0.199   0.199   0.199   0.200   0.197   0.189   0.187   0.188   0.187   0.192   0.189   0.187   0.185   0.190   0.189   0.196   0.198   0.192   0.190   0.187   0.190   0.189   0.185   0.188   0.193   0.180   0.186   0.191   0.190   0.196   0.194   0.187   0.188   0.195   0.190   0.196   0.184   0.190   0.190   0.191   0.188   0.186   0.188   0.193   0.196   0.199   0.202   0.197   0.198   0.195   0.198   0.196   0.198   0.199   0.201   0.195   0.200   0.187   0.187   0.190   0.190   0.190   0.187   0.189   0.188   0.187   0.183   0.187   0.189   0.193   0.191   0.188   0.194   0.193   0.194   0.195   0.197   0.195   0.192   0.195   0.188   0.194   0.193   0.190   0.194   0.187   0.184   0.187
     1.00    0.190   0.195   0.195   0.199   0.194   0.188   0.186   0.188   0.192   0.191   0.195   0.192   0.187   0.182   0.186   0.183   0.186   0.186   0.188   0.190   0.196   0.193   0.193   0.192   0.190   0.190   0.190   0.196   0.196   0.190   0.181   0.182   0.181   0.183   0.188   0.182   0.184   0.187   0.188   0.187   0.185   0.186   0.188   0.186   0.192   0.194   0.197   0.184   0.178   0.185   0.181   0.186   0.190   0.189   0.183   0.181   0.178   0.183   0.193   0.192   0.192   0.195   0.192   0.193   0.196   0.197   0.201   0.196   0.196   0.193   0.198   0.198   0.198   0.199   0.202   0.205   0.206   0.198   0.192   0.187   0.187   0.190   0.191   0.189   0.191   0.196   0.196   0.196   0.195   0.192   0.188   0.185   0.188   0.184   0.187   0.192   0.190   0.191   0.192   0.197   0.194   0.193   0.194   0.190   0.196   0.199   0.201   0.201   0.194   0.198   0.191   0.191   0.189   0.188   0.193   0.185   0.189   0.189   0.194   0.190   0.187   0.191   0.185   0.187   0.196   0.191   0.187   0.182   0.183   0.188   0.182   0.183   0.189   0.192   0.197   0.195   0.188   0.192   0.195   0.192   0.194   0.195   0.196   0.198   0.192   0.192   0.188   0.182   0.188   0.184   0.191   0.192   0.193   0.197   0.202   0.201   0.196   0.196   0.196   0.197   0.194   0.204   0.193   0.197   0.196   0.189   0.189   0.189   0.189   0.190   0.187   0.184   0.194   0.193   0.191   0.194   0.189   0.190   0.200   0.186   0.193   0.190   0.188   0.193   0.195   0.189   0.192   0.195   0.193   0.188   0.188   0.187   0.191

   Mean standard deviation across all grid points:
      u component:    0.388 m/s
      v component:    0.305 m/s
      w component:    0.190 m/s


U-component (X) statistics from the interpolated hub point:

   Mean =   9.7063 m/s
   TI   =   4.0834 %


Processing complete.  2.11142E+05 CPU seconds used.
