
This summary file was generated by TurbSim (from OpenFAST-v3.5.3) on 20-Apr-2025 at 03:00:27.


Runtime Options:

1682697194  Random seed #1
    RANLUX  Type of random number generator
         F  Output binary HH turbulence parameters?
         F  Output formatted turbulence parameters?
         F  Output AeroDyn HH files?
         T  Output AeroDyn FF files?
         F  Output BLADED FF files?
         F  Output tower data?
         F  Output HAWC FF files?
         F  Output formatted FF files?
         T  Output coherent turbulence time step file?
 0 -  NONE  IEC turbulence models scaled to exact specified standard deviation


Turbine/Model Specifications:

        37  Vertical grid-point matrix dimension
        35  Horizontal grid-point matrix dimension
     0.250  Time step [seconds]
   900.000  Analysis time [seconds]
   900.000  Usable output time [seconds]
    89.350  Hub height [m]
   167.400  Grid height [m]
   158.100  Grid width [m]
     0.000  Vertical flow angle [degrees]
     0.000  Horizontal flow angle [degrees]


Meteorological Boundary Conditions:

    TIMESR  User-input time series spectral model
       N/A  IEC standard
       N/A  IEC turbulence characteristic
       N/A  IEC turbulence type
       N/A  IEC Extreme Turbulence Model (ETM) "c" parameter [m/s]
       PL   Wind profile type
    90.000  Reference height [m]
    10.000  Reference wind speed [m/s]
       N/A  Jet height [m]
     0.120  Power law exponent
     0.030  Surface roughness length [m]


Non-IEC Meteorological Boundary Conditions:

    45.000  Site latitude [degrees]
     0.050  Gradient Richardson number
     0.480  Friction or shear velocity [m/s]
       N/A  Mixing layer depth [m]
       N/A  Mean hub u'w' Reynolds stress
       N/A  Mean hub u'v' Reynolds stress
       N/A  Mean hub v'w' Reynolds stress


Spatial Coherence Models:

       IEC  u-component coherence model
       IEC  v-component coherence model
       IEC  w-component coherence model
(   12.000, 0.353E-03)  u-component coherence parameters
(   12.000, 0.353E-03)  v-component coherence parameters
(   12.000, 0.353E-03)  w-component coherence parameters
       N/A  Coherence exponent


Coherent Turbulence Scaling Parameters:

.\EventData
            Name of the path containing the coherent turbulence data files
       les  Type of coherent turbulence data files
     0.500  Disturbance scale (ratio of wave height to rotor diameter)
     0.500  Fractional location of tower centerline from right
     0.000  Fractional location of hub height from the bottom of the dataset
    30.000  Minimum start time for coherent structures [seconds]


Profiles from User-Defined Time-Series Input:

  Height   Wind Speed   Horizontal Angle   Vertical Angle
   (m)        (m/s)          (deg)              (deg)    
  ------   ----------   ----------------   --------------
   94.00      10.00          -0.63               -0.00


You have requested that the following file(s) be generated:

   /kfs3/scratch/agupta/Projects/RL_Incubator/FinalRuns_Veer/Seed4/./FFSim_Seed4/Cond00_v10.0_PL0.12_TI6.0/Case0_wdirp00/Seed_5/TurbSim/HighT1.bts (AeroDyn/TurbSim full-field wind file)


Turbulence Simulation Scaling Parameter Summary:

   Turbulence model used                            =  User-input time series
   Gradient Richardson number                       =    0.050
   Monin-Obukhov (M-O) z/L parameter                =    0.067
   Monin-Obukhov (M-O) length scale                 = 1340.250 m
   Mean wind speed at hub height                    =    9.991 m/s

   Wind profile type                                =  Power law
   Power law exponent                               =    0.120
   Mean shear across rotor disk                     =    0.019 (m/s)/m
   Assumed rotor diameter                           =  158.100 m
   Surface roughness length                         =    0.030 m

   Nyquist frequency of turbulent wind field        =    2.000 Hz

   Number of time steps in the FFT                  =     3600
   Number of time steps output                      =     3600
   Number of points simulated                       =     1296


Mean Flow Angles:

   Vertical   =   0.0 degrees
   Horizontal =   0.0 degrees

Mean Wind Speed Profile:

   Height    Wind Speed   Horizontal Angle  Vertical Angle  U-comp (X)   V-comp (Y)   W-comp (Z)
     (m)        (m/s)         (degrees)       (degrees)       (m/s)        (m/s)        (m/s)   
   ------    ----------   ----------------  --------------  ----------   ----------   ----------
    168.4       10.78            0.00            0.00         10.78         0.00         0.00
    163.7       10.74            0.00            0.00         10.74         0.00         0.00
    159.1       10.71            0.00            0.00         10.71         0.00         0.00
    154.4       10.67            0.00            0.00         10.67         0.00         0.00
    149.8       10.63            0.00            0.00         10.63         0.00         0.00
    145.1       10.59            0.00            0.00         10.59         0.00         0.00
    140.5       10.55            0.00            0.00         10.55         0.00         0.00
    135.8       10.51            0.00            0.00         10.51         0.00         0.00
    131.2       10.46            0.00            0.00         10.46         0.00         0.00
    126.5       10.42            0.00            0.00         10.42         0.00         0.00
    121.9       10.37            0.00            0.00         10.37         0.00         0.00
    117.2       10.32            0.00            0.00         10.32         0.00         0.00
    112.6       10.27            0.00            0.00         10.27         0.00         0.00
    107.9       10.22            0.00            0.00         10.22         0.00         0.00
    103.3       10.17            0.00            0.00         10.17         0.00         0.00
     98.6       10.11            0.00            0.00         10.11         0.00         0.00
     94.0       10.05            0.00            0.00         10.05         0.00         0.00
     89.3        9.99            0.00            0.00          9.99         0.00         0.00
     84.7        9.93            0.00            0.00          9.93         0.00         0.00
     80.0        9.86            0.00            0.00          9.86         0.00         0.00
     75.4        9.79            0.00            0.00          9.79         0.00         0.00
     70.7        9.72            0.00            0.00          9.72         0.00         0.00
     66.1        9.64            0.00            0.00          9.64         0.00         0.00
     61.4        9.55            0.00            0.00          9.55         0.00         0.00
     56.8        9.46            0.00            0.00          9.46         0.00         0.00
     52.1        9.37            0.00            0.00          9.37         0.00         0.00
     47.5        9.26            0.00            0.00          9.26         0.00         0.00
     42.8        9.15            0.00            0.00          9.15         0.00         0.00
     38.2        9.02            0.00            0.00          9.02         0.00         0.00
     33.5        8.88            0.00            0.00          8.88         0.00         0.00
     28.9        8.73            0.00            0.00          8.73         0.00         0.00
     24.2        8.54            0.00            0.00          8.54         0.00         0.00
     19.6        8.33            0.00            0.00          8.33         0.00         0.00
     14.9        8.06            0.00            0.00          8.06         0.00         0.00
     10.3        7.71            0.00            0.00          7.71         0.00         0.00
      5.6        7.17            0.00            0.00          7.17         0.00         0.00
      1.0        5.83            0.00            0.00          5.83         0.00         0.00


Harvested Random Seeds after Generation of the Random Numbers:

     65026800 K 1
            0 K 2


Hub-Height Simulated Turbulence Statistical Summary:

   Type of Wind        Min (m/s)   Mean (m/s)    Max (m/s)  Sigma (m/s)       TI (%)
   ----------------    ---------   ----------    ---------  -----------       ------
   Longitudinal (u)         8.49         9.99        11.60        0.540        5.404
   Lateral (v)             -1.29         0.00         1.82        0.488        4.880
   Vertical (w)            -1.08         0.00         1.11        0.300        2.998
   U component              8.49         9.99        11.60        0.540        5.404
   V component             -1.29         0.00         1.82        0.488        4.880
   W component             -1.08         0.00         1.11        0.300        2.998
   Horizontal (U&V)         8.50        10.00        11.60        0.538        5.381
   Total                    8.50        10.01        11.60        0.538        5.376

                       Min Reynolds     Mean Reynolds    Max Reynolds    Correlation
   Product             Stress (m/s)^2   Stress (m/s)^2   Stress (m/s)^2  Coefficient
   ----------------    --------------   --------------   --------------  -----------
   u'w'                     -0.837            -0.002             0.940        -0.015
   u'v'                     -2.404             0.009             1.544         0.036
   v'w'                     -0.901             0.000             0.843         0.002


   Friction Velocity (Ustar)  =      0.049 m/s
   Maximum Instantaneous TKE  =      2.557 (m/s)^2
   Maximum Instantaneous CTKE =      1.229 (m/s)^2


Grid Point Variance Summary:

   Y-coord  -79.05  -74.40  -69.75  -65.10  -60.45  -55.80  -51.15  -46.50  -41.85  -37.20  -32.55  -27.90  -23.25  -18.60  -13.95   -9.30   -4.65    0.00    4.65    9.30   13.95   18.60   23.25   27.90   32.55   37.20   41.85   46.50   51.15   55.80   60.45   65.10   69.75   74.40   79.05

   Height   Standard deviation at grid points for the u component:
   168.40    0.577   0.580   0.594   0.571   0.565   0.585   0.598   0.609   0.606   0.600   0.598   0.603   0.561   0.566   0.573   0.571   0.543   0.552   0.544   0.538   0.530   0.500   0.527   0.522   0.543   0.530   0.568   0.546   0.558   0.531   0.530   0.495   0.501   0.499   0.522
   163.75    0.571   0.574   0.536   0.597   0.579   0.554   0.571   0.563   0.583   0.593   0.561   0.586   0.591   0.580   0.579   0.563   0.564   0.558   0.538   0.527   0.519   0.488   0.525   0.549   0.550   0.549   0.538   0.575   0.581   0.541   0.502   0.494   0.495   0.531   0.534
   159.10    0.596   0.541   0.562   0.583   0.600   0.573   0.580   0.558   0.545   0.554   0.545   0.566   0.590   0.614   0.574   0.563   0.568   0.545   0.538   0.486   0.491   0.516   0.570   0.553   0.594   0.589   0.583   0.554   0.582   0.574   0.499   0.471   0.487   0.500   0.489
   154.45    0.554   0.539   0.543   0.572   0.532   0.533   0.555   0.553   0.570   0.569   0.574   0.554   0.571   0.607   0.598   0.559   0.554   0.548   0.525   0.522   0.500   0.491   0.532   0.570   0.563   0.549   0.545   0.560   0.543   0.513   0.503   0.490   0.467   0.468   0.454
   149.80    0.563   0.563   0.525   0.553   0.532   0.540   0.593   0.557   0.557   0.558   0.569   0.562   0.538   0.578   0.556   0.563   0.499   0.537   0.526   0.521   0.535   0.499   0.530   0.532   0.537   0.554   0.525   0.539   0.502   0.507   0.497   0.482   0.480   0.493   0.468
   145.15    0.537   0.559   0.532   0.515   0.532   0.520   0.566   0.560   0.553   0.597   0.561   0.578   0.542   0.525   0.540   0.525   0.538   0.508   0.514   0.510   0.546   0.538   0.531   0.541   0.551   0.541   0.537   0.522   0.495   0.509   0.485   0.499   0.463   0.490   0.479
   140.50    0.551   0.547   0.553   0.515   0.499   0.551   0.541   0.545   0.577   0.591   0.619   0.575   0.520   0.531   0.528   0.532   0.523   0.536   0.526   0.547   0.523   0.533   0.542   0.532   0.538   0.552   0.546   0.521   0.491   0.488   0.438   0.454   0.454   0.497   0.491
   135.85    0.529   0.524   0.533   0.487   0.517   0.509   0.551   0.533   0.533   0.547   0.579   0.554   0.517   0.535   0.533   0.545   0.508   0.525   0.529   0.515   0.551   0.545   0.541   0.518   0.502   0.527   0.548   0.506   0.474   0.533   0.469   0.463   0.460   0.484   0.469
   131.20    0.553   0.515   0.528   0.561   0.489   0.485   0.523   0.547   0.561   0.558   0.556   0.522   0.517   0.513   0.519   0.504   0.535   0.507   0.523   0.517   0.517   0.521   0.525   0.511   0.514   0.532   0.526   0.492   0.499   0.548   0.496   0.482   0.507   0.523   0.507
   126.55    0.545   0.562   0.539   0.498   0.544   0.513   0.521   0.566   0.560   0.586   0.581   0.572   0.559   0.534   0.508   0.504   0.504   0.503   0.508   0.535   0.543   0.513   0.510   0.495   0.502   0.509   0.507   0.521   0.496   0.513   0.542   0.512   0.541   0.546   0.515
   121.90    0.544   0.541   0.488   0.499   0.520   0.516   0.515   0.512   0.575   0.577   0.588   0.549   0.524   0.515   0.512   0.484   0.494   0.507   0.515   0.496   0.515   0.482   0.517   0.500   0.509   0.523   0.531   0.556   0.524   0.507   0.530   0.540   0.546   0.551   0.552
   117.25    0.552   0.503   0.482   0.504   0.506   0.544   0.521   0.540   0.553   0.569   0.556   0.550   0.496   0.499   0.521   0.496   0.509   0.530   0.525   0.507   0.520   0.494   0.502   0.474   0.493   0.543   0.564   0.581   0.538   0.534   0.529   0.543   0.553   0.564   0.575
   112.60    0.522   0.502   0.498   0.492   0.517   0.517   0.520   0.543   0.545   0.581   0.565   0.553   0.522   0.494   0.504   0.506   0.495   0.488   0.516   0.542   0.527   0.488   0.455   0.466   0.488   0.524   0.531   0.547   0.548   0.527   0.524   0.551   0.580   0.597   0.553
   107.95    0.516   0.506   0.537   0.542   0.507   0.508   0.525   0.540   0.560   0.580   0.534   0.522   0.473   0.491   0.495   0.501   0.507   0.536   0.536   0.550   0.495   0.471   0.459   0.483   0.476   0.508   0.512   0.530   0.542   0.545   0.526   0.569   0.570   0.581   0.548
   103.30    0.472   0.476   0.511   0.493   0.545   0.511   0.499   0.525   0.545   0.534   0.526   0.510   0.520   0.523   0.530   0.542   0.526   0.513   0.559   0.565   0.506   0.505   0.483   0.498   0.506   0.507   0.507   0.540   0.567   0.578   0.570   0.551   0.565   0.565   0.526
    98.65    0.492   0.489   0.503   0.500   0.547   0.521   0.502   0.501   0.527   0.527   0.505   0.511   0.523   0.531   0.509   0.540   0.524   0.529   0.547   0.542   0.524   0.541   0.506   0.526   0.517   0.513   0.526   0.549   0.525   0.574   0.564   0.542   0.550   0.544   0.512
    94.00    0.509   0.546   0.526   0.496   0.507   0.515   0.529   0.527   0.493   0.504   0.493   0.497   0.528   0.511   0.522   0.533   0.543   0.523   0.525   0.541   0.522   0.539   0.563   0.538   0.532   0.541   0.568   0.563   0.569   0.562   0.533   0.548   0.529   0.526   0.468
    89.35    0.493   0.523   0.510   0.493   0.488   0.528   0.570   0.530   0.501   0.501   0.510   0.507   0.523   0.535   0.516   0.524   0.509   0.540   0.513   0.566   0.559   0.536   0.555   0.547   0.550   0.540   0.534   0.569   0.586   0.552   0.536   0.489   0.501   0.513   0.514
    84.70    0.525   0.515   0.472   0.500   0.507   0.531   0.542   0.521   0.515   0.512   0.516   0.543   0.565   0.525   0.530   0.516   0.524   0.520   0.552   0.570   0.554   0.533   0.557   0.559   0.544   0.521   0.515   0.552   0.551   0.532   0.535   0.513   0.516   0.526   0.568
    80.05    0.528   0.530   0.492   0.510   0.528   0.525   0.523   0.517   0.486   0.462   0.497   0.549   0.568   0.558   0.525   0.539   0.552   0.532   0.528   0.572   0.545   0.553   0.557   0.552   0.562   0.572   0.562   0.551   0.551   0.538   0.557   0.582   0.589   0.546   0.552
    75.40    0.518   0.506   0.522   0.520   0.533   0.524   0.515   0.502   0.467   0.477   0.491   0.538   0.555   0.551   0.557   0.515   0.538   0.542   0.522   0.540   0.525   0.557   0.569   0.528   0.537   0.552   0.555   0.527   0.546   0.561   0.581   0.579   0.556   0.542   0.529
    70.75    0.510   0.493   0.506   0.486   0.517   0.503   0.502   0.500   0.511   0.495   0.478   0.543   0.531   0.529   0.560   0.550   0.537   0.520   0.495   0.506   0.544   0.578   0.530   0.550   0.557   0.553   0.556   0.519   0.515   0.536   0.537   0.558   0.516   0.529   0.510
    66.10    0.488   0.504   0.479   0.462   0.458   0.492   0.488   0.485   0.480   0.448   0.485   0.537   0.575   0.529   0.560   0.570   0.526   0.521   0.513   0.497   0.529   0.557   0.520   0.521   0.559   0.553   0.537   0.508   0.519   0.508   0.492   0.520   0.506   0.530   0.486
    61.45    0.494   0.476   0.477   0.476   0.458   0.476   0.479   0.481   0.477   0.497   0.489   0.537   0.573   0.538   0.562   0.533   0.543   0.522   0.528   0.492   0.494   0.494   0.524   0.531   0.499   0.530   0.518   0.523   0.545   0.484   0.489   0.511   0.483   0.498   0.488
    56.80    0.512   0.492   0.451   0.451   0.445   0.483   0.486   0.492   0.500   0.511   0.522   0.525   0.518   0.557   0.546   0.529   0.530   0.537   0.502   0.502   0.484   0.499   0.510   0.498   0.495   0.495   0.512   0.534   0.501   0.513   0.496   0.489   0.528   0.538   0.514
    52.15    0.511   0.515   0.463   0.466   0.454   0.478   0.529   0.491   0.516   0.517   0.483   0.526   0.529   0.528   0.552   0.568   0.548   0.502   0.472   0.493   0.455   0.470   0.484   0.495   0.492   0.531   0.503   0.522   0.493   0.517   0.540   0.582   0.571   0.557   0.542
    47.50    0.552   0.528   0.535   0.534   0.492   0.478   0.496   0.526   0.499   0.473   0.478   0.493   0.540   0.530   0.551   0.572   0.531   0.519   0.505   0.484   0.484   0.450   0.455   0.488   0.496   0.537   0.541   0.552   0.512   0.539   0.542   0.579   0.616   0.593   0.595
    42.85    0.570   0.556   0.552   0.516   0.480   0.478   0.469   0.468   0.477   0.464   0.505   0.497   0.511   0.533   0.570   0.565   0.561   0.541   0.498   0.496   0.490   0.466   0.455   0.455   0.476   0.518   0.532   0.593   0.572   0.545   0.527   0.553   0.632   0.615   0.622
    38.20    0.545   0.532   0.526   0.507   0.474   0.438   0.466   0.499   0.449   0.460   0.473   0.500   0.525   0.540   0.557   0.531   0.578   0.552   0.548   0.492   0.482   0.478   0.449   0.461   0.454   0.504   0.538   0.551   0.575   0.569   0.568   0.595   0.647   0.656   0.629
    33.55    0.526   0.500   0.492   0.493   0.481   0.433   0.446   0.446   0.469   0.479   0.509   0.536   0.544   0.554   0.560   0.559   0.554   0.535   0.534   0.545   0.504   0.504   0.450   0.441   0.466   0.465   0.535   0.551   0.586   0.617   0.564   0.584   0.624   0.649   0.617
    28.90    0.478   0.474   0.449   0.464   0.461   0.446   0.429   0.478   0.478   0.504   0.492   0.545   0.563   0.568   0.571   0.560   0.550   0.563   0.569   0.561   0.506   0.505   0.479   0.441   0.463   0.479   0.523   0.567   0.534   0.576   0.573   0.597   0.599   0.622   0.577
    24.25    0.503   0.463   0.475   0.442   0.458   0.469   0.452   0.458   0.477   0.503   0.504   0.532   0.585   0.583   0.586   0.560   0.561   0.591   0.594   0.538   0.507   0.493   0.497   0.472   0.452   0.473   0.523   0.525   0.567   0.571   0.564   0.588   0.566   0.565   0.560
    19.60    0.497   0.485   0.490   0.484   0.491   0.461   0.467   0.446   0.446   0.486   0.515   0.546   0.557   0.591   0.549   0.586   0.564   0.577   0.588   0.546   0.502   0.493   0.471   0.483   0.471   0.487   0.528   0.521   0.510   0.571   0.619   0.589   0.575   0.569   0.580
    14.95    0.497   0.503   0.523   0.516   0.514   0.499   0.462   0.454   0.465   0.496   0.519   0.529   0.526   0.535   0.540   0.555   0.560   0.568   0.544   0.544   0.549   0.507   0.522   0.529   0.483   0.495   0.527   0.505   0.530   0.575   0.600   0.606   0.560   0.562   0.569
    10.30    0.517   0.522   0.537   0.529   0.502   0.488   0.480   0.466   0.487   0.498   0.509   0.517   0.516   0.506   0.524   0.499   0.553   0.544   0.545   0.556   0.523   0.546   0.568   0.554   0.543   0.546   0.532   0.523   0.570   0.571   0.599   0.614   0.600   0.579   0.595
     5.65    0.538   0.546   0.564   0.558   0.552   0.516   0.508   0.484   0.490   0.479   0.500   0.516   0.498   0.496   0.533   0.540   0.546   0.552   0.562   0.539   0.509   0.539   0.554   0.549   0.548   0.538   0.544   0.511   0.553   0.578   0.553   0.591   0.584   0.579   0.570
     1.00    0.511   0.536   0.560   0.567   0.539   0.522   0.502   0.475   0.474   0.480   0.493   0.494   0.494   0.475   0.512   0.530   0.562   0.561   0.560   0.583   0.537   0.568   0.582   0.591   0.581   0.542   0.540   0.506   0.528   0.511   0.510   0.526   0.563   0.588   0.597

   Height   Standard deviation at grid points for the v component:
   168.40    0.448   0.435   0.437   0.437   0.446   0.441   0.433   0.448   0.444   0.465   0.474   0.482   0.475   0.457   0.438   0.455   0.472   0.451   0.454   0.460   0.437   0.479   0.436   0.447   0.445   0.438   0.427   0.442   0.416   0.421   0.426   0.438   0.417   0.412   0.446
   163.75    0.467   0.437   0.427   0.432   0.426   0.434   0.420   0.460   0.443   0.457   0.453   0.460   0.500   0.487   0.460   0.485   0.495   0.466   0.452   0.463   0.458   0.476   0.436   0.450   0.440   0.446   0.421   0.440   0.435   0.436   0.432   0.427   0.428   0.428   0.440
   159.10    0.446   0.447   0.423   0.410   0.430   0.417   0.436   0.433   0.453   0.458   0.463   0.464   0.495   0.507   0.482   0.499   0.492   0.465   0.451   0.448   0.463   0.442   0.452   0.446   0.426   0.436   0.461   0.448   0.455   0.442   0.430   0.426   0.419   0.428   0.461
   154.45    0.430   0.448   0.433   0.422   0.402   0.425   0.425   0.436   0.449   0.434   0.439   0.457   0.485   0.491   0.475   0.480   0.496   0.450   0.460   0.445   0.433   0.434   0.448   0.434   0.425   0.430   0.442   0.469   0.472   0.455   0.437   0.415   0.411   0.436   0.461
   149.80    0.437   0.444   0.421   0.442   0.413   0.415   0.403   0.434   0.435   0.431   0.453   0.502   0.503   0.476   0.479   0.459   0.500   0.452   0.440   0.455   0.438   0.422   0.404   0.435   0.401   0.410   0.462   0.471   0.441   0.453   0.443   0.424   0.413   0.420   0.448
   145.15    0.428   0.430   0.421   0.420   0.419   0.422   0.407   0.419   0.440   0.455   0.485   0.503   0.484   0.479   0.492   0.480   0.477   0.460   0.457   0.451   0.428   0.432   0.416   0.416   0.433   0.451   0.462   0.475   0.424   0.421   0.421   0.426   0.434   0.433   0.442
   140.50    0.416   0.400   0.406   0.420   0.432   0.424   0.426   0.413   0.430   0.469   0.477   0.488   0.498   0.510   0.487   0.494   0.459   0.437   0.449   0.455   0.450   0.456   0.456   0.425   0.412   0.437   0.456   0.455   0.447   0.424   0.426   0.428   0.432   0.445   0.441
   135.85    0.436   0.439   0.438   0.434   0.438   0.432   0.427   0.416   0.422   0.442   0.465   0.468   0.452   0.481   0.509   0.489   0.495   0.473   0.465   0.449   0.444   0.440   0.438   0.416   0.425   0.428   0.429   0.423   0.454   0.415   0.441   0.422   0.420   0.417   0.438
   131.20    0.411   0.441   0.420   0.438   0.448   0.424   0.417   0.406   0.413   0.433   0.448   0.452   0.457   0.488   0.496   0.475   0.456   0.478   0.468   0.463   0.430   0.420   0.428   0.416   0.410   0.423   0.427   0.439   0.437   0.416   0.434   0.426   0.435   0.443   0.459
   126.55    0.431   0.439   0.434   0.450   0.452   0.422   0.411   0.412   0.401   0.425   0.438   0.453   0.441   0.505   0.482   0.466   0.454   0.512   0.457   0.454   0.436   0.442   0.448   0.432   0.415   0.432   0.449   0.441   0.430   0.425   0.430   0.426   0.428   0.466   0.474
   121.90    0.427   0.429   0.433   0.472   0.447   0.434   0.407   0.406   0.415   0.435   0.437   0.445   0.459   0.496   0.467   0.478   0.494   0.514   0.486   0.453   0.428   0.414   0.443   0.442   0.451   0.425   0.428   0.442   0.439   0.444   0.432   0.433   0.435   0.452   0.443
   117.25    0.442   0.423   0.450   0.444   0.454   0.416   0.429   0.429   0.448   0.453   0.455   0.447   0.464   0.492   0.456   0.492   0.492   0.493   0.462   0.426   0.433   0.461   0.475   0.438   0.460   0.456   0.426   0.455   0.449   0.474   0.445   0.439   0.424   0.427   0.451
   112.60    0.459   0.450   0.435   0.442   0.448   0.433   0.448   0.448   0.471   0.462   0.455   0.478   0.467   0.483   0.506   0.485   0.455   0.472   0.441   0.457   0.452   0.462   0.455   0.454   0.445   0.460   0.436   0.432   0.454   0.479   0.485   0.482   0.442   0.433   0.455
   107.95    0.467   0.483   0.467   0.471   0.462   0.454   0.456   0.459   0.452   0.453   0.435   0.425   0.470   0.479   0.498   0.475   0.459   0.439   0.459   0.465   0.445   0.456   0.437   0.469   0.471   0.448   0.421   0.431   0.466   0.508   0.519   0.504   0.490   0.440   0.468
   103.30    0.438   0.457   0.461   0.463   0.454   0.424   0.454   0.450   0.439   0.437   0.442   0.433   0.472   0.472   0.459   0.482   0.498   0.475   0.463   0.472   0.433   0.470   0.466   0.442   0.458   0.453   0.451   0.443   0.496   0.492   0.494   0.486   0.459   0.463   0.478
    98.65    0.425   0.419   0.450   0.439   0.438   0.422   0.436   0.449   0.435   0.440   0.472   0.458   0.474   0.458   0.461   0.483   0.495   0.471   0.443   0.472   0.459   0.466   0.466   0.437   0.461   0.450   0.473   0.483   0.487   0.488   0.504   0.486   0.493   0.511   0.471
    94.00    0.434   0.439   0.433   0.460   0.435   0.434   0.448   0.472   0.457   0.444   0.452   0.453   0.469   0.488   0.484   0.484   0.451   0.490   0.494   0.472   0.474   0.450   0.432   0.428   0.469   0.464   0.486   0.514   0.503   0.462   0.483   0.485   0.471   0.480   0.473
    89.35    0.452   0.433   0.426   0.417   0.437   0.442   0.452   0.446   0.431   0.454   0.448   0.453   0.452   0.451   0.445   0.465   0.460   0.488   0.483   0.477   0.451   0.436   0.455   0.467   0.469   0.491   0.521   0.515   0.497   0.497   0.467   0.462   0.443   0.451   0.441
    84.70    0.445   0.419   0.445   0.441   0.421   0.427   0.451   0.471   0.468   0.459   0.451   0.466   0.456   0.485   0.490   0.479   0.498   0.478   0.493   0.448   0.462   0.493   0.460   0.495   0.485   0.473   0.498   0.487   0.503   0.488   0.493   0.473   0.469   0.460   0.439
    80.05    0.421   0.428   0.447   0.442   0.420   0.424   0.450   0.463   0.469   0.468   0.454   0.459   0.459   0.460   0.486   0.481   0.514   0.501   0.490   0.467   0.484   0.477   0.477   0.501   0.506   0.499   0.483   0.489   0.501   0.462   0.464   0.480   0.506   0.476   0.461
    75.40    0.432   0.434   0.433   0.442   0.427   0.429   0.460   0.456   0.458   0.468   0.488   0.467   0.463   0.445   0.466   0.476   0.499   0.502   0.482   0.468   0.473   0.482   0.494   0.502   0.525   0.511   0.485   0.486   0.509   0.479   0.463   0.439   0.460   0.505   0.482
    70.75    0.408   0.416   0.431   0.440   0.435   0.423   0.451   0.465   0.463   0.480   0.464   0.460   0.487   0.481   0.491   0.470   0.476   0.473   0.468   0.446   0.481   0.469   0.476   0.479   0.516   0.522   0.485   0.486   0.482   0.441   0.439   0.431   0.445   0.507   0.525
    66.10    0.388   0.399   0.434   0.436   0.449   0.446   0.441   0.440   0.459   0.464   0.472   0.475   0.467   0.483   0.514   0.538   0.495   0.467   0.472   0.459   0.469   0.468   0.471   0.492   0.500   0.510   0.506   0.513   0.465   0.451   0.437   0.454   0.456   0.483   0.499
    61.45    0.413   0.395   0.435   0.445   0.450   0.451   0.462   0.462   0.450   0.463   0.449   0.466   0.474   0.488   0.518   0.532   0.525   0.488   0.483   0.462   0.493   0.506   0.493   0.492   0.467   0.483   0.506   0.470   0.467   0.443   0.438   0.425   0.465   0.466   0.467
    56.80    0.404   0.420   0.444   0.454   0.463   0.457   0.491   0.507   0.502   0.512   0.485   0.503   0.493   0.511   0.505   0.541   0.544   0.511   0.492   0.487   0.486   0.481   0.487   0.506   0.479   0.473   0.453   0.485   0.463   0.453   0.429   0.421   0.465   0.452   0.457
    52.15    0.425   0.424   0.418   0.454   0.450   0.456   0.482   0.463   0.513   0.540   0.523   0.541   0.536   0.559   0.514   0.538   0.545   0.540   0.482   0.502   0.517   0.483   0.460   0.443   0.461   0.461   0.442   0.418   0.468   0.454   0.465   0.471   0.463   0.431   0.442
    47.50    0.459   0.451   0.450   0.440   0.470   0.482   0.477   0.458   0.479   0.525   0.535   0.533   0.557   0.561   0.539   0.499   0.517   0.484   0.494   0.507   0.519   0.469   0.480   0.444   0.463   0.474   0.440   0.413   0.450   0.433   0.465   0.490   0.454   0.450   0.433
    42.85    0.476   0.492   0.466   0.454   0.455   0.462   0.500   0.497   0.513   0.547   0.568   0.567   0.572   0.551   0.562   0.530   0.506   0.483   0.468   0.499   0.484   0.494   0.477   0.447   0.464   0.455   0.436   0.435   0.456   0.465   0.448   0.444   0.449   0.424   0.418
    38.20    0.515   0.475   0.462   0.476   0.451   0.445   0.462   0.487   0.501   0.545   0.566   0.590   0.523   0.553   0.548   0.558   0.493   0.499   0.501   0.496   0.484   0.505   0.451   0.464   0.459   0.472   0.476   0.456   0.469   0.465   0.481   0.459   0.429   0.410   0.397
    33.55    0.500   0.481   0.468   0.476   0.464   0.438   0.441   0.460   0.470   0.510   0.566   0.542   0.530   0.578   0.575   0.541   0.482   0.505   0.492   0.492   0.482   0.455   0.455   0.440   0.447   0.458   0.452   0.476   0.476   0.492   0.461   0.430   0.414   0.427   0.413
    28.90    0.501   0.463   0.452   0.444   0.469   0.421   0.412   0.462   0.459   0.505   0.545   0.531   0.549   0.567   0.550   0.497   0.491   0.493   0.486   0.462   0.445   0.447   0.431   0.406   0.428   0.431   0.436   0.456   0.487   0.461   0.456   0.451   0.462   0.451   0.408
    24.25    0.481   0.449   0.441   0.452   0.475   0.447   0.431   0.441   0.487   0.516   0.516   0.511   0.535   0.559   0.539   0.536   0.504   0.476   0.464   0.436   0.424   0.427   0.426   0.407   0.426   0.441   0.418   0.420   0.445   0.480   0.480   0.439   0.424   0.453   0.432
    19.60    0.474   0.481   0.439   0.442   0.467   0.448   0.427   0.456   0.492   0.516   0.491   0.476   0.504   0.526   0.533   0.534   0.467   0.466   0.443   0.424   0.449   0.402   0.401   0.422   0.430   0.425   0.413   0.384   0.420   0.437   0.429   0.442   0.451   0.454   0.451
    14.95    0.485   0.499   0.472   0.485   0.482   0.489   0.476   0.479   0.484   0.519   0.508   0.484   0.487   0.492   0.524   0.497   0.460   0.424   0.429   0.435   0.412   0.424   0.416   0.435   0.431   0.426   0.423   0.409   0.432   0.431   0.448   0.427   0.408   0.454   0.440
    10.30    0.499   0.481   0.485   0.517   0.520   0.492   0.487   0.467   0.467   0.483   0.501   0.464   0.481   0.478   0.492   0.460   0.464   0.462   0.443   0.425   0.431   0.425   0.412   0.400   0.422   0.436   0.457   0.437   0.419   0.416   0.431   0.430   0.430   0.413   0.445
     5.65    0.473   0.475   0.498   0.514   0.507   0.447   0.461   0.481   0.496   0.502   0.481   0.463   0.449   0.478   0.467   0.460   0.449   0.436   0.435   0.428   0.403   0.402   0.399   0.398   0.413   0.433   0.432   0.440   0.425   0.426   0.464   0.467   0.456   0.444   0.438
     1.00    0.455   0.482   0.512   0.492   0.490   0.476   0.461   0.477   0.482   0.516   0.477   0.475   0.449   0.484   0.446   0.424   0.425   0.425   0.413   0.382   0.403   0.410   0.417   0.410   0.414   0.422   0.420   0.425   0.415   0.437   0.461   0.438   0.416   0.397   0.414

   Height   Standard deviation at grid points for the w component:
   168.40    0.316   0.324   0.312   0.307   0.316   0.302   0.293   0.290   0.282   0.285   0.297   0.294   0.291   0.298   0.301   0.300   0.315   0.339   0.325   0.332   0.336   0.321   0.328   0.314   0.303   0.309   0.297   0.311   0.306   0.318   0.309   0.291   0.297   0.294   0.298
   163.75    0.318   0.328   0.319   0.310   0.305   0.306   0.302   0.295   0.297   0.285   0.284   0.296   0.293   0.302   0.299   0.320   0.312   0.315   0.323   0.328   0.325   0.312   0.311   0.308   0.304   0.305   0.300   0.306   0.309   0.326   0.305   0.289   0.290   0.295   0.307
   159.10    0.324   0.325   0.335   0.315   0.314   0.313   0.305   0.295   0.296   0.295   0.291   0.292   0.299   0.286   0.294   0.296   0.296   0.297   0.306   0.319   0.310   0.305   0.301   0.300   0.311   0.293   0.301   0.313   0.317   0.326   0.312   0.301   0.300   0.291   0.303
   154.45    0.320   0.338   0.333   0.317   0.320   0.309   0.296   0.299   0.293   0.297   0.294   0.293   0.297   0.290   0.288   0.292   0.297   0.292   0.296   0.298   0.301   0.293   0.297   0.303   0.304   0.309   0.319   0.325   0.315   0.310   0.305   0.302   0.305   0.302   0.298
   149.80    0.334   0.352   0.332   0.317   0.331   0.328   0.303   0.305   0.281   0.298   0.296   0.286   0.291   0.297   0.280   0.291   0.295   0.302   0.292   0.298   0.292   0.307   0.297   0.304   0.311   0.311   0.318   0.311   0.318   0.308   0.300   0.310   0.300   0.320   0.308
   145.15    0.327   0.345   0.337   0.318   0.332   0.324   0.330   0.322   0.297   0.305   0.297   0.285   0.294   0.303   0.289   0.292   0.302   0.290   0.298   0.304   0.306   0.327   0.319   0.317   0.313   0.311   0.306   0.326   0.316   0.320   0.312   0.315   0.310   0.320   0.313
   140.50    0.329   0.334   0.337   0.320   0.317   0.333   0.320   0.305   0.303   0.315   0.304   0.289   0.291   0.302   0.296   0.300   0.302   0.300   0.293   0.302   0.304   0.307   0.315   0.311   0.319   0.312   0.312   0.325   0.335   0.318   0.313   0.319   0.310   0.329   0.324
   135.85    0.316   0.319   0.328   0.325   0.311   0.331   0.330   0.322   0.328   0.320   0.308   0.307   0.301   0.295   0.283   0.303   0.300   0.311   0.310   0.305   0.308   0.308   0.315   0.313   0.309   0.298   0.307   0.322   0.330   0.322   0.320   0.312   0.321   0.324   0.345
   131.20    0.317   0.323   0.316   0.308   0.312   0.315   0.328   0.312   0.327   0.317   0.308   0.301   0.297   0.289   0.286   0.304   0.308   0.307   0.321   0.324   0.308   0.310   0.305   0.307   0.312   0.296   0.296   0.311   0.311   0.313   0.305   0.322   0.322   0.319   0.335
   126.55    0.309   0.312   0.299   0.299   0.314   0.303   0.314   0.322   0.323   0.321   0.309   0.305   0.300   0.303   0.298   0.296   0.304   0.318   0.321   0.319   0.303   0.313   0.307   0.300   0.302   0.304   0.302   0.304   0.310   0.313   0.309   0.315   0.298   0.314   0.318
   121.90    0.310   0.296   0.297   0.293   0.288   0.293   0.302   0.326   0.324   0.309   0.308   0.299   0.291   0.301   0.311   0.310   0.317   0.317   0.321   0.319   0.303   0.296   0.285   0.289   0.292   0.299   0.293   0.312   0.307   0.313   0.312   0.319   0.315   0.313   0.332
   117.25    0.293   0.296   0.293   0.289   0.289   0.292   0.319   0.323   0.327   0.311   0.305   0.296   0.300   0.304   0.307   0.314   0.316   0.316   0.311   0.310   0.305   0.289   0.291   0.295   0.296   0.300   0.309   0.297   0.310   0.302   0.311   0.314   0.318   0.327   0.338
   112.60    0.289   0.291   0.289   0.281   0.295   0.302   0.323   0.323   0.319   0.324   0.311   0.312   0.304   0.301   0.315   0.300   0.305   0.314   0.310   0.308   0.315   0.307   0.297   0.294   0.296   0.295   0.296   0.290   0.307   0.307   0.305   0.318   0.327   0.334   0.341
   107.95    0.291   0.291   0.290   0.296   0.283   0.309   0.310   0.317   0.317   0.313   0.311   0.314   0.305   0.305   0.302   0.300   0.314   0.319   0.314   0.327   0.312   0.311   0.299   0.287   0.301   0.299   0.294   0.299   0.311   0.303   0.309   0.313   0.326   0.327   0.338
   103.30    0.292   0.294   0.303   0.299   0.302   0.309   0.307   0.299   0.306   0.309   0.304   0.307   0.306   0.309   0.297   0.296   0.314   0.306   0.314   0.317   0.309   0.315   0.310   0.286   0.301   0.305   0.305   0.301   0.309   0.299   0.316   0.314   0.334   0.345   0.337
    98.65    0.300   0.285   0.288   0.301   0.290   0.294   0.314   0.314   0.323   0.320   0.304   0.307   0.308   0.308   0.296   0.298   0.309   0.303   0.303   0.295   0.304   0.305   0.310   0.307   0.300   0.302   0.308   0.314   0.303   0.306   0.310   0.300   0.319   0.338   0.326
    94.00    0.301   0.304   0.298   0.291   0.295   0.297   0.305   0.320   0.319   0.302   0.300   0.307   0.315   0.310   0.303   0.291   0.309   0.308   0.306   0.284   0.292   0.301   0.299   0.299   0.300   0.305   0.301   0.299   0.301   0.298   0.303   0.311   0.314   0.326   0.321
    89.35    0.299   0.293   0.297   0.282   0.289   0.281   0.286   0.289   0.286   0.290   0.291   0.300   0.305   0.301   0.307   0.302   0.298   0.300   0.295   0.292   0.286   0.303   0.299   0.297   0.303   0.294   0.289   0.293   0.300   0.288   0.304   0.312   0.311   0.311   0.320
    84.70    0.290   0.291   0.291   0.282   0.289   0.287   0.285   0.291   0.274   0.283   0.279   0.293   0.303   0.299   0.307   0.298   0.295   0.306   0.298   0.303   0.288   0.290   0.289   0.288   0.288   0.293   0.285   0.293   0.294   0.294   0.308   0.315   0.311   0.304   0.307
    80.05    0.298   0.294   0.281   0.287   0.286   0.288   0.300   0.305   0.283   0.275   0.280   0.291   0.298   0.287   0.295   0.293   0.306   0.296   0.294   0.308   0.310   0.297   0.277   0.277   0.274   0.282   0.277   0.288   0.297   0.296   0.304   0.317   0.320   0.314   0.311
    75.40    0.300   0.295   0.284   0.280   0.285   0.292   0.291   0.291   0.278   0.273   0.279   0.286   0.290   0.287   0.287   0.297   0.285   0.297   0.301   0.316   0.314   0.301   0.286   0.298   0.281   0.279   0.277   0.284   0.286   0.304   0.310   0.298   0.301   0.312   0.320
    70.75    0.305   0.299   0.290   0.279   0.284   0.281   0.293   0.290   0.281   0.280   0.282   0.293   0.291   0.298   0.287   0.276   0.271   0.284   0.293   0.296   0.304   0.301   0.307   0.296   0.294   0.273   0.276   0.279   0.295   0.297   0.295   0.295   0.303   0.306   0.314
    66.10    0.298   0.288   0.280   0.283   0.292   0.283   0.290   0.277   0.282   0.280   0.291   0.303   0.299   0.299   0.290   0.280   0.281   0.284   0.295   0.288   0.301   0.312   0.304   0.295   0.283   0.280   0.285   0.289   0.285   0.287   0.295   0.292   0.302   0.310   0.315
    61.45    0.289   0.289   0.286   0.293   0.289   0.286   0.281   0.285   0.279   0.283   0.292   0.294   0.301   0.300   0.287   0.282   0.282   0.289   0.292   0.292   0.297   0.295   0.292   0.292   0.276   0.277   0.280   0.281   0.289   0.289   0.289   0.301   0.303   0.309   0.312
    56.80    0.282   0.285   0.296   0.293   0.287   0.289   0.279   0.285   0.270   0.278   0.292   0.297   0.291   0.304   0.295   0.292   0.278   0.279   0.290   0.280   0.292   0.303   0.303   0.286   0.281   0.274   0.281   0.290   0.294   0.298   0.292   0.296   0.298   0.322   0.307
    52.15    0.274   0.282   0.290   0.289   0.287   0.289   0.282   0.276   0.289   0.288   0.293   0.294   0.290   0.290   0.294   0.305   0.290   0.295   0.291   0.290   0.306   0.310   0.309   0.288   0.285   0.268   0.276   0.292   0.290   0.295   0.290   0.290   0.310   0.310   0.318
    47.50    0.285   0.295   0.286   0.297   0.288   0.282   0.275   0.288   0.296   0.299   0.296   0.302   0.309   0.302   0.302   0.291   0.294   0.288   0.295   0.298   0.308   0.307   0.300   0.293   0.288   0.272   0.277   0.284   0.293   0.288   0.291   0.292   0.303   0.313   0.322
    42.85    0.285   0.289   0.286   0.298   0.300   0.298   0.287   0.287   0.290   0.298   0.296   0.301   0.304   0.291   0.293   0.293   0.284   0.285   0.284   0.293   0.294   0.305   0.296   0.297   0.276   0.277   0.282   0.280   0.292   0.313   0.314   0.302   0.307   0.316   0.303
    38.20    0.293   0.291   0.314   0.305   0.313   0.312   0.292   0.292   0.289   0.308   0.318   0.308   0.302   0.315   0.310   0.295   0.295   0.289   0.284   0.284   0.284   0.291   0.303   0.297   0.287   0.289   0.284   0.289   0.304   0.312   0.326   0.316   0.312   0.314   0.299
    33.55    0.294   0.296   0.314   0.309   0.318   0.311   0.301   0.288   0.292   0.306   0.316   0.328   0.312   0.313   0.304   0.304   0.296   0.285   0.290   0.297   0.294   0.289   0.299   0.290   0.290   0.280   0.290   0.303   0.322   0.324   0.341   0.332   0.336   0.314   0.286
    28.90    0.296   0.297   0.307   0.299   0.315   0.314   0.324   0.309   0.308   0.318   0.323   0.317   0.316   0.320   0.316   0.318   0.304   0.299   0.299   0.301   0.296   0.302   0.310   0.307   0.286   0.297   0.296   0.297   0.304   0.322   0.327   0.325   0.316   0.312   0.295
    24.25    0.295   0.292   0.290   0.307   0.312   0.317   0.316   0.322   0.321   0.320   0.319   0.319   0.318   0.312   0.310   0.322   0.314   0.300   0.308   0.299   0.302   0.288   0.298   0.304   0.317   0.311   0.294   0.294   0.297   0.306   0.320   0.317   0.305   0.303   0.302
    19.60    0.292   0.298   0.305   0.305   0.307   0.319   0.314   0.319   0.334   0.328   0.314   0.308   0.300   0.302   0.312   0.321   0.305   0.297   0.288   0.303   0.294   0.285   0.296   0.312   0.309   0.322   0.326   0.304   0.292   0.308   0.303   0.314   0.313   0.290   0.291
    14.95    0.293   0.299   0.320   0.321   0.312   0.323   0.318   0.323   0.334   0.330   0.330   0.296   0.314   0.313   0.308   0.299   0.305   0.292   0.295   0.302   0.312   0.305   0.305   0.308   0.301   0.325   0.326   0.333   0.315   0.324   0.311   0.309   0.319   0.305   0.292
    10.30    0.302   0.297   0.322   0.313   0.307   0.321   0.322   0.309   0.312   0.322   0.310   0.297   0.313   0.304   0.305   0.291   0.292   0.301   0.294   0.293   0.306   0.310   0.307   0.307   0.292   0.304   0.311   0.308   0.306   0.326   0.324   0.330   0.313   0.302   0.308
     5.65    0.294   0.294   0.311   0.309   0.305   0.308   0.305   0.303   0.304   0.312   0.305   0.300   0.303   0.296   0.297   0.298   0.303   0.302   0.297   0.298   0.301   0.297   0.297   0.304   0.308   0.303   0.300   0.295   0.302   0.299   0.299   0.309   0.309   0.318   0.310
     1.00    0.301   0.294   0.295   0.302   0.299   0.300   0.281   0.309   0.302   0.311   0.300   0.306   0.302   0.285   0.290   0.297   0.292   0.300   0.289   0.288   0.287   0.285   0.291   0.300   0.296   0.306   0.290   0.299   0.296   0.306   0.303   0.306   0.303   0.313   0.303

   Mean standard deviation across all grid points:
      u component:    0.528 m/s
      v component:    0.460 m/s
      w component:    0.303 m/s


U-component (X) statistics from the interpolated hub point:

   Mean =   9.9913 m/s
   TI   =   5.4043 %


Processing complete.  6096.3 CPU seconds used.
