
This summary file was generated by TurbSim (from OpenFAST-v3.5.3) on 19-Apr-2025 at 21:26:44.


Runtime Options:

**********  Random seed #1
    RANLUX  Type of random number generator
         F  Output binary HH turbulence parameters?
         F  Output formatted turbulence parameters?
         F  Output AeroDyn HH files?
         T  Output AeroDyn FF files?
         F  Output BLADED FF files?
         F  Output tower data?
         F  Output HAWC FF files?
         F  Output formatted FF files?
         T  Output coherent turbulence time step file?
 0 -  NONE  IEC turbulence models scaled to exact specified standard deviation


Turbine/Model Specifications:

        39  Vertical grid-point matrix dimension
       193  Horizontal grid-point matrix dimension
     0.250  Time step [seconds]
   900.000  Analysis time [seconds]
   900.000  Usable output time [seconds]
   177.700  Hub height [m]
   353.400  Grid height [m]
  1785.600  Grid width [m]
     0.000  Vertical flow angle [degrees]
     0.000  Horizontal flow angle [degrees]


Meteorological Boundary Conditions:

    IECKAI  IEC Kaimal spectral model
         1  IEC standard: IEC 61400-1 Ed. 3: 2005
     6.000  Percent turbulence intensity, IEC 61400-1 Ed. 3: 2005
       NTM  IEC Normal Turbulence Model
       N/A  IEC Extreme Turbulence Model (ETM) "c" parameter [m/s]
       USR  Wind profile type
    90.000  Reference height [m]
       N/A  Reference wind speed [m/s]
       N/A  Jet height [m]
       N/A  Power law exponent
     0.030  Surface roughness length [m]


Non-IEC Meteorological Boundary Conditions:

       N/A  Site latitude [degrees]
       N/A  Gradient Richardson number
       N/A  Friction or shear velocity [m/s]
       N/A  Mixing layer depth [m]
       N/A  Mean hub u'w' Reynolds stress
       N/A  Mean hub u'v' Reynolds stress
       N/A  Mean hub v'w' Reynolds stress


Spatial Coherence Models:

       IEC  u-component coherence model
       IEC  v-component coherence model
       IEC  w-component coherence model
(   12.000, 0.353E-03)  u-component coherence parameters
(   12.000, 0.353E-03)  v-component coherence parameters
(   12.000, 0.353E-03)  w-component coherence parameters
       N/A  Coherence exponent


User-Defined Profiles:

  Height   Wind Speed   Horizontal Angle
   (m)        (m/s)          (deg)      
  ------   ----------   ----------------
  353.40      10.00         318.19
  334.80      10.00         321.14
  316.20      10.00         324.10
  297.60      10.00         327.05
  279.00      10.00         330.00
  260.40      10.00         332.95
  241.80      10.00         335.90
  223.20      10.00         338.86
  204.60      10.00         341.81
  186.00      10.00         344.76
  167.40      10.00         347.71
  148.80      10.00         350.67
  130.20      10.00         353.62
  111.60      10.00         356.57
   93.00      10.00         359.52
   74.40      10.00           2.48
   55.80      10.00           5.43
   37.20      10.00           8.38
   18.60      10.00          11.33
    0.00      10.00          14.29


You have requested that the following file(s) be generated:

   /kfs3/scratch/agupta/Projects/RL_Incubator/FinalRuns_Veer/Seed4/./FFSim_Seed4/Cond00_v10.0_PL0.12_TI6.0/Seed_3/Low.bts (AeroDyn/TurbSim full-field wind file)


Turbulence Simulation Scaling Parameter Summary:

   Turbulence model used                            =  IEC Kaimal
   Turbulence characteristic                        =  User-specified
   IEC standard                                     =  IEC 61400-1 Ed. 3: 2005
   Mean wind speed at hub height                    =   10.000 m/s
   Characteristic value of standard deviation       =    0.600 m/s
   Turbulence scale                                 =   42.000 m
   u-component integral scale                       =  340.200 m
   Coherency scale                                  =  340.200 m
   Characteristic value of hub turbulence intensity =    6.000%
   Gradient Richardson number                       =    0.000

   Wind profile type                                =  Linear interpolation of user-defined profile
   Equivalent power law exponent (upper rotor disk) =    0.000
   Mean shear across rotor disk                     =    0.000 (m/s)/m
   Assumed rotor diameter                           =  353.400 m
   Surface roughness length                         =    0.030 m

   Nyquist frequency of turbulent wind field        =    2.000 Hz

   Number of time steps in the FFT                  =     3600
   Number of time steps output                      =     3600
   Number of points simulated                       =     7527


Mean Flow Angles:

   Vertical   =   0.0 degrees
   Horizontal =   0.0 degrees

Mean Wind Speed Profile:

   Height    Wind Speed   Horizontal Angle  Vertical Angle  U-comp (X)   V-comp (Y)   W-comp (Z)
     (m)        (m/s)         (degrees)       (degrees)       (m/s)        (m/s)        (m/s)   
   ------    ----------   ----------------  --------------  ----------   ----------   ----------
    354.4       10.00          318.19            0.00          7.45        -6.67         0.00
    345.1       10.00          319.51            0.00          7.60        -6.49         0.00
    335.8       10.00          320.98            0.00          7.77        -6.30         0.00
    326.5       10.00          322.46            0.00          7.93        -6.09         0.00
    317.2       10.00          323.94            0.00          8.08        -5.89         0.00
    307.9       10.00          325.41            0.00          8.23        -5.68         0.00
    298.6       10.00          326.89            0.00          8.38        -5.46         0.00
    289.3       10.00          328.37            0.00          8.51        -5.25         0.00
    280.0       10.00          329.84            0.00          8.65        -5.02         0.00
    270.7       10.00          331.32            0.00          8.77        -4.80         0.00
    261.4       10.00          332.79            0.00          8.89        -4.57         0.00
    252.1       10.00          334.27            0.00          9.01        -4.34         0.00
    242.8       10.00          335.75            0.00          9.12        -4.11         0.00
    233.5       10.00          337.22            0.00          9.22        -3.87         0.00
    224.2       10.00          338.70            0.00          9.32        -3.63         0.00
    214.9       10.00          340.17            0.00          9.41        -3.39         0.00
    205.6       10.00          341.65            0.00          9.49        -3.15         0.00
    196.3       10.00          343.13            0.00          9.57        -2.90         0.00
    187.0       10.00          344.60            0.00          9.64        -2.66         0.00
    177.7       10.00          346.08            0.00          9.71        -2.41         0.00
    168.4       10.00          347.56            0.00          9.77        -2.15         0.00
    159.1       10.00          349.03            0.00          9.82        -1.90         0.00
    149.8       10.00          350.51            0.00          9.86        -1.65         0.00
    140.5       10.00          351.98            0.00          9.90        -1.39         0.00
    131.2       10.00          353.46            0.00          9.93        -1.14         0.00
    121.9       10.00          354.94            0.00          9.96        -0.88         0.00
    112.6       10.00          356.41            0.00          9.98        -0.63         0.00
    103.3       10.00          357.89            0.00          9.99        -0.37         0.00
     94.0       10.00          359.37            0.00         10.00        -0.11         0.00
     84.7       10.00          360.84            0.00         10.00         0.15         0.00
     75.4       10.00          362.32            0.00          9.99         0.40         0.00
     66.1       10.00            3.79            0.00          9.98         0.66         0.00
     56.8       10.00            5.27            0.00          9.96         0.92         0.00
     47.5       10.00            6.75            0.00          9.93         1.17         0.00
     38.2       10.00            8.22            0.00          9.90         1.43         0.00
     28.9       10.00            9.70            0.00          9.86         1.68         0.00
     19.6       10.00           11.17            0.00          9.81         1.94         0.00
     10.3       10.00           12.65            0.00          9.76         2.19         0.00
      1.0       10.00           14.13            0.00          9.70         2.44         0.00


Harvested Random Seeds after Generation of the Random Numbers:

    377667225 K 1
            0 K 2


Hub-Height Simulated Turbulence Statistical Summary:

   Type of Wind        Min (m/s)   Mean (m/s)    Max (m/s)  Sigma (m/s)       TI (%)
   ----------------    ---------   ----------    ---------  -----------       ------
   Longitudinal (u)         8.33        10.00        11.64        0.557        5.572
   Lateral (v)             -1.50        -0.00         1.82        0.456        4.558
   Vertical (w)            -1.11        -0.00         1.03        0.290        2.902
   U component              8.13         9.71        11.39        0.559        5.761
   V component             -4.02        -2.41        -0.64        0.453        4.670
   W component             -1.11        -0.00         1.03        0.290        2.990
   Horizontal (U&V)         8.33        10.01        11.64        0.557        5.560
   Total                    8.34        10.01        11.64        0.557        5.558

                       Min Reynolds     Mean Reynolds    Max Reynolds    Correlation
   Product             Stress (m/s)^2   Stress (m/s)^2   Stress (m/s)^2  Coefficient
   ----------------    --------------   --------------   --------------  -----------
   u'w'                     -0.949             0.006             0.811         0.035
   u'v'                     -1.539             0.018             1.222         0.069
   v'w'                     -0.836             0.009             0.943         0.070


   Friction Velocity (Ustar)  =      0.075 m/s
   Maximum Instantaneous TKE  =      1.733 (m/s)^2
   Maximum Instantaneous CTKE =      0.770 (m/s)^2


Grid Point Variance Summary:

   Y-coord -892.80 -883.50 -874.20 -864.90 -855.60 -846.30 -837.00 -827.70 -818.40 -809.10 -799.80 -790.50 -781.20 -771.90 -762.60 -753.30 -744.00 -734.70 -725.40 -716.10 -706.80 -697.50 -688.20 -678.90 -669.60 -660.30 -651.00 -641.70 -632.40 -623.10 -613.80 -604.50 -595.20 -585.90 -576.60 -567.30 -558.00 -548.70 -539.40 -530.10 -520.80 -511.50 -502.20 -492.90 -483.60 -474.30 -465.00 -455.70 -446.40 -437.10 -427.80 -418.50 -409.20 -399.90 -390.60 -381.30 -372.00 -362.70 -353.40 -344.10 -334.80 -325.50 -316.20 -306.90 -297.60 -288.30 -279.00 -269.70 -260.40 -251.10 -241.80 -232.50 -223.20 -213.90 -204.60 -195.30 -186.00 -176.70 -167.40 -158.10 -148.80 -139.50 -130.20 -120.90 -111.60 -102.30  -93.00  -83.70  -74.40  -65.10  -55.80  -46.50  -37.20  -27.90  -18.60   -9.30    0.00    9.30   18.60   27.90   37.20   46.50   55.80   65.10   74.40   83.70   93.00  102.30  111.60  120.90  130.20  139.50  148.80  158.10  167.40  176.70  186.00  195.30  204.60  213.90  223.20  232.50  241.80  251.10  260.40  269.70  279.00  288.30  297.60  306.90  316.20  325.50  334.80  344.10  353.40  362.70  372.00  381.30  390.60  399.90  409.20  418.50  427.80  437.10  446.40  455.70  465.00  474.30  483.60  492.90  502.20  511.50  520.80  530.10  539.40  548.70  558.00  567.30  576.60  585.90  595.20  604.50  613.80  623.10  632.40  641.70  651.00  660.30  669.60  678.90  688.20  697.50  706.80  716.10  725.40  734.70  744.00  753.30  762.60  771.90  781.20  790.50  799.80  809.10  818.40  827.70  837.00  846.30  855.60  864.90  874.20  883.50  892.80

   Height   Standard deviation at grid points for the u component:
   354.40    0.602   0.639   0.624   0.645   0.647   0.660   0.669   0.629   0.594   0.559   0.611   0.630   0.649   0.633   0.560   0.603   0.616   0.570   0.527   0.534   0.537   0.543   0.537   0.532   0.553   0.577   0.577   0.554   0.571   0.523   0.553   0.562   0.557   0.556   0.542   0.508   0.567   0.567   0.563   0.617   0.627   0.576   0.595   0.597   0.587   0.586   0.562   0.558   0.570   0.585   0.572   0.570   0.582   0.618   0.648   0.658   0.646   0.605   0.609   0.604   0.569   0.564   0.569   0.566   0.562   0.585   0.606   0.620   0.581   0.626   0.606   0.646   0.625   0.614   0.619   0.615   0.642   0.651   0.636   0.612   0.630   0.632   0.579   0.592   0.565   0.564   0.522   0.505   0.478   0.473   0.498   0.509   0.504   0.508   0.508   0.496   0.539   0.527   0.549   0.606   0.583   0.585   0.595   0.578   0.513   0.512   0.554   0.536   0.528   0.562   0.575   0.588   0.568   0.573   0.575   0.605   0.637   0.613   0.633   0.612   0.621   0.666   0.644   0.599   0.638   0.632   0.576   0.588   0.593   0.562   0.618   0.645   0.627   0.617   0.612   0.591   0.613   0.588   0.622   0.640   0.629   0.666   0.666   0.650   0.629   0.641   0.661   0.641   0.640   0.651   0.633   0.624   0.635   0.617   0.654   0.628   0.622   0.610   0.625   0.690   0.739   0.799   0.853   0.831   0.780   0.790   0.712   0.732   0.764   0.729   0.734   0.766   0.745   0.758   0.711   0.668   0.672   0.685   0.685   0.654   0.666   0.664   0.667   0.641   0.618   0.658   0.676   0.651   0.619   0.579   0.587   0.626   0.612
   345.10    0.569   0.589   0.645   0.648   0.635   0.662   0.630   0.601   0.569   0.538   0.570   0.616   0.630   0.633   0.586   0.572   0.628   0.614   0.572   0.556   0.553   0.551   0.553   0.537   0.547   0.555   0.563   0.577   0.559   0.533   0.594   0.573   0.609   0.576   0.554   0.525   0.564   0.564   0.591   0.612   0.624   0.592   0.582   0.604   0.595   0.597   0.576   0.588   0.613   0.585   0.580   0.590   0.649   0.631   0.658   0.680   0.646   0.587   0.597   0.602   0.588   0.575   0.553   0.552   0.569   0.572   0.606   0.615   0.622   0.629   0.643   0.647   0.635   0.597   0.599   0.599   0.611   0.644   0.632   0.606   0.611   0.625   0.610   0.610   0.588   0.557   0.552   0.521   0.502   0.523   0.518   0.513   0.523   0.498   0.513   0.512   0.527   0.522   0.540   0.588   0.579   0.602   0.594   0.539   0.514   0.507   0.525   0.574   0.542   0.549   0.531   0.548   0.513   0.553   0.610   0.624   0.621   0.639   0.629   0.598   0.612   0.611   0.580   0.612   0.651   0.609   0.586   0.588   0.564   0.580   0.599   0.626   0.612   0.620   0.651   0.639   0.643   0.641   0.669   0.661   0.640   0.673   0.630   0.636   0.593   0.633   0.665   0.673   0.681   0.645   0.654   0.633   0.655   0.636   0.677   0.678   0.634   0.620   0.676   0.717   0.760   0.820   0.841   0.811   0.797   0.769   0.716   0.736   0.722   0.713   0.756   0.783   0.759   0.790   0.757   0.683   0.639   0.661   0.719   0.672   0.669   0.687   0.628   0.628   0.660   0.625   0.625   0.604   0.590   0.563   0.589   0.585   0.626
   335.80    0.588   0.583   0.622   0.664   0.623   0.622   0.611   0.629   0.583   0.573   0.606   0.622   0.649   0.628   0.589   0.606   0.605   0.593   0.569   0.575   0.581   0.549   0.540   0.552   0.527   0.506   0.547   0.548   0.561   0.576   0.596   0.590   0.578   0.556   0.521   0.517   0.540   0.545   0.573   0.578   0.569   0.562   0.569   0.603   0.589   0.592   0.628   0.648   0.607   0.610   0.601   0.585   0.622   0.662   0.673   0.678   0.643   0.631   0.601   0.632   0.621   0.592   0.553   0.534   0.555   0.558   0.554   0.639   0.589   0.654   0.619   0.622   0.640   0.606   0.607   0.555   0.593   0.615   0.595   0.597   0.635   0.624   0.613   0.597   0.572   0.562   0.530   0.542   0.523   0.537   0.571   0.518   0.522   0.483   0.500   0.506   0.493   0.535   0.537   0.529   0.580   0.572   0.580   0.562   0.502   0.479   0.509   0.524   0.526   0.521   0.560   0.551   0.562   0.586   0.614   0.602   0.627   0.657   0.624   0.601   0.580   0.601   0.576   0.614   0.593   0.586   0.595   0.566   0.562   0.563   0.590   0.602   0.592   0.611   0.593   0.631   0.626   0.679   0.684   0.641   0.677   0.631   0.599   0.635   0.600   0.623   0.652   0.703   0.676   0.690   0.662   0.639   0.631   0.629   0.614   0.634   0.586   0.636   0.662   0.663   0.742   0.773   0.771   0.796   0.784   0.778   0.757   0.730   0.729   0.714   0.769   0.780   0.749   0.797   0.781   0.750   0.676   0.704   0.698   0.709   0.670   0.685   0.643   0.651   0.688   0.653   0.642   0.588   0.563   0.509   0.549   0.569   0.635
   326.50    0.578   0.593   0.615   0.608   0.609   0.596   0.617   0.612   0.622   0.606   0.630   0.609   0.589   0.634   0.628   0.653   0.647   0.651   0.589   0.599   0.587   0.559   0.529   0.524   0.494   0.483   0.505   0.540   0.538   0.578   0.584   0.595   0.573   0.545   0.533   0.501   0.533   0.534   0.548   0.532   0.558   0.549   0.562   0.586   0.601   0.573   0.601   0.650   0.659   0.615   0.578   0.607   0.581   0.599   0.607   0.666   0.650   0.628   0.606   0.604   0.625   0.610   0.546   0.530   0.572   0.632   0.600   0.629   0.627   0.640   0.630   0.593   0.650   0.651   0.603   0.584   0.611   0.610   0.576   0.579   0.588   0.603   0.584   0.579   0.569   0.530   0.518   0.522   0.537   0.499   0.504   0.509   0.518   0.491   0.494   0.492   0.475   0.515   0.509   0.546   0.578   0.564   0.549   0.538   0.502   0.442   0.517   0.507   0.534   0.562   0.550   0.545   0.590   0.581   0.588   0.591   0.632   0.618   0.598   0.621   0.564   0.593   0.573   0.563   0.596   0.596   0.584   0.574   0.596   0.606   0.571   0.603   0.560   0.594   0.545   0.633   0.628   0.621   0.618   0.635   0.688   0.668   0.656   0.621   0.608   0.627   0.612   0.652   0.716   0.649   0.658   0.646   0.647   0.620   0.665   0.707   0.657   0.640   0.633   0.652   0.669   0.739   0.732   0.734   0.787   0.774   0.761   0.753   0.739   0.753   0.776   0.801   0.786   0.764   0.768   0.735   0.673   0.690   0.665   0.668   0.640   0.621   0.635   0.605   0.627   0.630   0.585   0.547   0.534   0.528   0.533   0.599   0.606
   317.20    0.584   0.623   0.630   0.579   0.570   0.585   0.545   0.551   0.586   0.554   0.579   0.631   0.641   0.650   0.625   0.594   0.628   0.640   0.614   0.592   0.616   0.597   0.577   0.534   0.495   0.518   0.484   0.498   0.527   0.546   0.587   0.539   0.532   0.495   0.488   0.503   0.470   0.508   0.522   0.538   0.519   0.563   0.578   0.620   0.628   0.607   0.595   0.632   0.671   0.627   0.605   0.604   0.577   0.614   0.604   0.633   0.635   0.645   0.577   0.589   0.567   0.559   0.575   0.549   0.577   0.599   0.594   0.628   0.591   0.619   0.610   0.636   0.613   0.654   0.611   0.613   0.604   0.576   0.563   0.565   0.566   0.590   0.575   0.547   0.571   0.524   0.538   0.543   0.523   0.526   0.514   0.484   0.511   0.495   0.507   0.493   0.499   0.538   0.543   0.547   0.582   0.605   0.605   0.552   0.513   0.492   0.538   0.522   0.518   0.537   0.564   0.571   0.578   0.589   0.591   0.551   0.575   0.610   0.606   0.585   0.562   0.564   0.540   0.547   0.582   0.583   0.565   0.582   0.594   0.560   0.563   0.542   0.518   0.537   0.558   0.595   0.569   0.570   0.582   0.589   0.608   0.658   0.684   0.632   0.584   0.607   0.609   0.657   0.697   0.690   0.696   0.677   0.663   0.641   0.606   0.631   0.630   0.634   0.668   0.660   0.693   0.678   0.749   0.774   0.773   0.760   0.801   0.755   0.748   0.725   0.739   0.792   0.743   0.782   0.773   0.726   0.704   0.676   0.640   0.642   0.619   0.626   0.649   0.620   0.603   0.556   0.573   0.515   0.505   0.548   0.539   0.562   0.635
   307.90    0.591   0.597   0.639   0.613   0.618   0.597   0.547   0.575   0.559   0.574   0.608   0.625   0.640   0.631   0.597   0.590   0.615   0.633   0.636   0.597   0.588   0.569   0.575   0.530   0.525   0.495   0.466   0.493   0.510   0.536   0.571   0.573   0.520   0.512   0.485   0.489   0.489   0.503   0.559   0.577   0.576   0.604   0.577   0.606   0.576   0.564   0.601   0.659   0.665   0.656   0.587   0.576   0.574   0.597   0.594   0.626   0.620   0.609   0.583   0.572   0.545   0.560   0.574   0.583   0.540   0.596   0.637   0.633   0.634   0.600   0.599   0.624   0.618   0.595   0.627   0.573   0.582   0.535   0.537   0.568   0.557   0.536   0.538   0.547   0.550   0.549   0.493   0.525   0.517   0.503   0.483   0.505   0.506   0.483   0.518   0.531   0.532   0.544   0.558   0.584   0.564   0.564   0.583   0.560   0.540   0.488   0.522   0.543   0.532   0.568   0.542   0.564   0.523   0.553   0.561   0.562   0.552   0.546   0.598   0.552   0.567   0.557   0.579   0.590   0.567   0.617   0.578   0.540   0.552   0.529   0.553   0.539   0.462   0.506   0.537   0.573   0.540   0.578   0.579   0.592   0.633   0.645   0.640   0.601   0.571   0.592   0.661   0.672   0.692   0.686   0.688   0.683   0.677   0.667   0.600   0.595   0.604   0.649   0.650   0.661   0.646   0.683   0.733   0.709   0.734   0.726   0.786   0.788   0.786   0.743   0.721   0.748   0.779   0.766   0.762   0.718   0.685   0.655   0.638   0.606   0.629   0.619   0.609   0.569   0.569   0.555   0.528   0.550   0.538   0.549   0.539   0.533   0.575
   298.60    0.591   0.581   0.595   0.621   0.625   0.591   0.536   0.540   0.531   0.564   0.585   0.616   0.603   0.600   0.588   0.586   0.618   0.624   0.619   0.634   0.616   0.567   0.528   0.560   0.515   0.529   0.477   0.528   0.516   0.537   0.529   0.555   0.508   0.492   0.468   0.489   0.524   0.548   0.575   0.592   0.610   0.590   0.606   0.587   0.533   0.509   0.557   0.582   0.629   0.633   0.600   0.577   0.545   0.576   0.588   0.567   0.571   0.600   0.591   0.577   0.541   0.554   0.592   0.547   0.597   0.586   0.595   0.612   0.594   0.612   0.626   0.597   0.604   0.575   0.552   0.591   0.537   0.539   0.545   0.532   0.515   0.498   0.500   0.529   0.527   0.523   0.529   0.535   0.520   0.466   0.476   0.503   0.494   0.539   0.539   0.525   0.534   0.538   0.545   0.554   0.549   0.576   0.603   0.620   0.565   0.563   0.567   0.562   0.529   0.547   0.544   0.541   0.527   0.548   0.543   0.565   0.550   0.526   0.560   0.536   0.547   0.571   0.563   0.574   0.575   0.571   0.554   0.533   0.535   0.530   0.539   0.491   0.457   0.512   0.552   0.628   0.535   0.569   0.593   0.569   0.615   0.640   0.604   0.528   0.557   0.621   0.661   0.659   0.667   0.694   0.662   0.640   0.659   0.663   0.581   0.581   0.595   0.630   0.616   0.648   0.624   0.667   0.700   0.681   0.675   0.701   0.744   0.761   0.772   0.738   0.751   0.766   0.747   0.724   0.738   0.716   0.731   0.705   0.629   0.594   0.618   0.612   0.576   0.539   0.527   0.526   0.568   0.536   0.547   0.544   0.559   0.578   0.572
   289.30    0.581   0.562   0.602   0.593   0.610   0.587   0.565   0.558   0.538   0.573   0.552   0.566   0.591   0.578   0.567   0.557   0.619   0.629   0.595   0.622   0.591   0.591   0.559   0.528   0.512   0.517   0.488   0.504   0.526   0.538   0.578   0.548   0.516   0.515   0.498   0.507   0.509   0.574   0.553   0.587   0.617   0.647   0.608   0.604   0.578   0.556   0.521   0.571   0.612   0.609   0.603   0.536   0.536   0.570   0.582   0.550   0.551   0.564   0.546   0.555   0.544   0.559   0.565   0.550   0.551   0.570   0.579   0.595   0.585   0.614   0.604   0.584   0.587   0.546   0.551   0.542   0.514   0.512   0.499   0.488   0.483   0.488   0.497   0.510   0.501   0.531   0.566   0.548   0.538   0.498   0.492   0.490   0.508   0.540   0.521   0.517   0.478   0.514   0.562   0.581   0.559   0.579   0.622   0.612   0.555   0.592   0.602   0.538   0.523   0.563   0.526   0.506   0.504   0.539   0.525   0.560   0.562   0.546   0.531   0.531   0.553   0.546   0.562   0.556   0.546   0.529   0.535   0.524   0.523   0.498   0.514   0.476   0.486   0.551   0.625   0.587   0.585   0.584   0.583   0.569   0.606   0.615   0.604   0.553   0.586   0.620   0.632   0.644   0.600   0.635   0.610   0.588   0.634   0.602   0.574   0.527   0.573   0.592   0.640   0.668   0.688   0.702   0.712   0.720   0.668   0.706   0.752   0.752   0.733   0.746   0.696   0.708   0.736   0.701   0.685   0.699   0.692   0.703   0.622   0.606   0.670   0.698   0.644   0.589   0.579   0.551   0.541   0.529   0.537   0.533   0.576   0.597   0.550
   280.00    0.598   0.580   0.555   0.627   0.612   0.591   0.579   0.548   0.512   0.534   0.559   0.574   0.632   0.587   0.586   0.599   0.641   0.645   0.619   0.615   0.591   0.586   0.534   0.540   0.518   0.491   0.476   0.478   0.500   0.536   0.575   0.558   0.546   0.537   0.507   0.543   0.573   0.584   0.585   0.588   0.604   0.628   0.600   0.576   0.607   0.578   0.573   0.604   0.581   0.623   0.608   0.559   0.532   0.578   0.574   0.536   0.544   0.545   0.534   0.532   0.563   0.549   0.525   0.549   0.526   0.579   0.566   0.595   0.566   0.565   0.571   0.585   0.581   0.556   0.522   0.524   0.545   0.511   0.490   0.454   0.459   0.482   0.459   0.485   0.514   0.521   0.560   0.578   0.532   0.524   0.490   0.497   0.495   0.504   0.520   0.541   0.484   0.521   0.542   0.571   0.581   0.592   0.591   0.594   0.588   0.594   0.555   0.560   0.513   0.524   0.546   0.550   0.545   0.546   0.521   0.533   0.529   0.546   0.550   0.503   0.552   0.540   0.592   0.577   0.542   0.514   0.516   0.511   0.485   0.518   0.543   0.496   0.499   0.549   0.626   0.624   0.596   0.598   0.587   0.584   0.606   0.593   0.583   0.579   0.579   0.616   0.643   0.658   0.666   0.618   0.619   0.593   0.616   0.605   0.621   0.565   0.605   0.634   0.658   0.665   0.730   0.708   0.676   0.680   0.683   0.727   0.700   0.764   0.811   0.720   0.738   0.713   0.729   0.657   0.651   0.648   0.670   0.666   0.640   0.680   0.669   0.665   0.613   0.633   0.576   0.572   0.555   0.583   0.574   0.555   0.582   0.600   0.572
   270.70    0.594   0.615   0.581   0.619   0.621   0.591   0.571   0.572   0.575   0.537   0.520   0.563   0.594   0.628   0.590   0.623   0.624   0.624   0.630   0.599   0.600   0.601   0.528   0.511   0.532   0.513   0.511   0.490   0.530   0.579   0.599   0.587   0.553   0.567   0.568   0.576   0.616   0.618   0.577   0.591   0.586   0.604   0.638   0.599   0.591   0.561   0.581   0.594   0.569   0.563   0.594   0.561   0.546   0.568   0.542   0.548   0.550   0.547   0.540   0.530   0.521   0.550   0.541   0.539   0.554   0.550   0.536   0.586   0.563   0.534   0.554   0.562   0.539   0.544   0.488   0.494   0.497   0.532   0.497   0.438   0.469   0.511   0.491   0.483   0.524   0.575   0.551   0.551   0.541   0.543   0.528   0.468   0.521   0.528   0.512   0.527   0.502   0.518   0.542   0.564   0.608   0.585   0.567   0.557   0.558   0.530   0.557   0.549   0.550   0.522   0.519   0.517   0.522   0.500   0.528   0.503   0.510   0.511   0.540   0.538   0.552   0.544   0.576   0.566   0.530   0.517   0.525   0.480   0.514   0.515   0.516   0.548   0.566   0.531   0.611   0.635   0.628   0.613   0.586   0.590   0.600   0.609   0.600   0.613   0.564   0.613   0.618   0.631   0.636   0.587   0.586   0.599   0.617   0.599   0.640   0.644   0.621   0.677   0.675   0.731   0.741   0.723   0.707   0.668   0.663   0.690   0.727   0.758   0.786   0.805   0.758   0.729   0.722   0.694   0.642   0.623   0.639   0.694   0.663   0.655   0.655   0.622   0.642   0.617   0.597   0.555   0.544   0.578   0.597   0.611   0.599   0.584   0.591
   261.40    0.601   0.571   0.569   0.616   0.628   0.648   0.606   0.617   0.609   0.545   0.561   0.572   0.615   0.586   0.584   0.615   0.615   0.607   0.606   0.597   0.592   0.574   0.540   0.499   0.506   0.526   0.525   0.519   0.521   0.568   0.580   0.584   0.576   0.572   0.618   0.606   0.564   0.590   0.609   0.563   0.555   0.597   0.597   0.568   0.578   0.575   0.582   0.550   0.550   0.555   0.535   0.514   0.531   0.545   0.546   0.585   0.532   0.509   0.561   0.562   0.531   0.555   0.561   0.541   0.556   0.516   0.534   0.576   0.588   0.572   0.543   0.539   0.537   0.545   0.514   0.484   0.485   0.497   0.475   0.458   0.496   0.510   0.528   0.497   0.559   0.568   0.568   0.583   0.570   0.537   0.538   0.527   0.476   0.552   0.513   0.551   0.530   0.556   0.546   0.605   0.623   0.597   0.603   0.537   0.543   0.537   0.496   0.510   0.499   0.526   0.522   0.551   0.536   0.463   0.505   0.535   0.501   0.519   0.513   0.540   0.558   0.552   0.538   0.531   0.521   0.516   0.486   0.520   0.493   0.550   0.558   0.542   0.527   0.557   0.573   0.628   0.623   0.626   0.599   0.585   0.583   0.556   0.586   0.595   0.602   0.605   0.559   0.625   0.617   0.597   0.571   0.607   0.634   0.636   0.612   0.645   0.670   0.643   0.650   0.698   0.717   0.711   0.665   0.652   0.679   0.732   0.709   0.777   0.747   0.764   0.778   0.753   0.756   0.699   0.678   0.682   0.694   0.708   0.690   0.653   0.691   0.651   0.642   0.676   0.623   0.598   0.552   0.579   0.610   0.594   0.576   0.589   0.601
   252.10    0.552   0.582   0.586   0.658   0.696   0.678   0.644   0.630   0.606   0.571   0.569   0.590   0.587   0.576   0.583   0.605   0.600   0.593   0.565   0.565   0.566   0.553   0.567   0.522   0.506   0.535   0.535   0.526   0.539   0.577   0.572   0.583   0.603   0.576   0.625   0.598   0.595   0.601   0.584   0.576   0.617   0.585   0.559   0.520   0.563   0.572   0.561   0.592   0.545   0.525   0.525   0.531   0.574   0.548   0.558   0.604   0.628   0.553   0.554   0.558   0.552   0.539   0.553   0.548   0.507   0.556   0.569   0.589   0.595   0.576   0.570   0.570   0.540   0.497   0.475   0.460   0.479   0.509   0.480   0.487   0.523   0.528   0.524   0.570   0.551   0.578   0.580   0.560   0.588   0.507   0.519   0.491   0.470   0.500   0.503   0.551   0.545   0.536   0.569   0.606   0.592   0.534   0.541   0.519   0.524   0.533   0.503   0.511   0.495   0.517   0.522   0.531   0.535   0.496   0.534   0.540   0.547   0.536   0.533   0.517   0.538   0.509   0.545   0.542   0.548   0.519   0.489   0.509   0.496   0.521   0.506   0.568   0.549   0.541   0.575   0.588   0.625   0.581   0.551   0.572   0.560   0.563   0.549   0.541   0.598   0.571   0.587   0.587   0.595   0.577   0.574   0.582   0.610   0.613   0.578   0.609   0.623   0.631   0.644   0.685   0.714   0.768   0.711   0.702   0.649   0.668   0.702   0.771   0.788   0.788   0.745   0.728   0.767   0.747   0.716   0.710   0.729   0.703   0.716   0.720   0.672   0.687   0.668   0.662   0.664   0.575   0.562   0.601   0.562   0.567   0.546   0.557   0.592
   242.80    0.589   0.608   0.617   0.646   0.713   0.720   0.737   0.642   0.591   0.590   0.553   0.571   0.551   0.592   0.610   0.590   0.614   0.580   0.565   0.537   0.524   0.543   0.575   0.571   0.555   0.510   0.533   0.515   0.562   0.578   0.557   0.635   0.619   0.610   0.635   0.629   0.592   0.599   0.587   0.589   0.625   0.649   0.633   0.619   0.573   0.570   0.616   0.602   0.542   0.514   0.516   0.529   0.538   0.574   0.564   0.602   0.589   0.569   0.561   0.532   0.517   0.529   0.524   0.518   0.532   0.538   0.563   0.557   0.592   0.555   0.565   0.554   0.515   0.503   0.514   0.495   0.510   0.531   0.506   0.483   0.547   0.549   0.566   0.555   0.550   0.574   0.584   0.567   0.536   0.535   0.493   0.487   0.509   0.520   0.522   0.573   0.537   0.494   0.574   0.605   0.576   0.480   0.516   0.494   0.536   0.566   0.569   0.530   0.498   0.527   0.525   0.526   0.529   0.490   0.532   0.521   0.577   0.588   0.528   0.531   0.505   0.492   0.486   0.525   0.536   0.488   0.465   0.481   0.512   0.553   0.503   0.526   0.506   0.531   0.531   0.562   0.605   0.564   0.570   0.557   0.557   0.563   0.552   0.560   0.604   0.574   0.594   0.578   0.553   0.581   0.549   0.572   0.584   0.554   0.532   0.596   0.604   0.616   0.621   0.685   0.710   0.722   0.702   0.672   0.673   0.715   0.729   0.757   0.787   0.804   0.763   0.745   0.723   0.750   0.701   0.710   0.738   0.724   0.740   0.688   0.676   0.638   0.665   0.653   0.655   0.550   0.587   0.579   0.594   0.552   0.533   0.524   0.567
   233.50    0.669   0.624   0.640   0.671   0.683   0.712   0.693   0.660   0.567   0.537   0.563   0.558   0.589   0.614   0.613   0.579   0.605   0.563   0.539   0.523   0.533   0.540   0.548   0.549   0.554   0.511   0.504   0.557   0.555   0.573   0.584   0.641   0.631   0.624   0.613   0.629   0.629   0.622   0.600   0.637   0.641   0.700   0.662   0.628   0.606   0.614   0.607   0.617   0.535   0.518   0.545   0.501   0.533   0.554   0.558   0.566   0.577   0.574   0.581   0.526   0.503   0.500   0.542   0.506   0.497   0.540   0.528   0.563   0.563   0.558   0.532   0.549   0.519   0.514   0.510   0.544   0.538   0.531   0.511   0.522   0.525   0.541   0.518   0.539   0.543   0.527   0.572   0.555   0.530   0.525   0.515   0.477   0.506   0.540   0.532   0.520   0.527   0.516   0.560   0.579   0.552   0.523   0.494   0.528   0.542   0.551   0.594   0.578   0.546   0.523   0.538   0.556   0.499   0.503   0.503   0.505   0.556   0.543   0.534   0.498   0.522   0.532   0.451   0.483   0.541   0.507   0.483   0.489   0.509   0.535   0.513   0.526   0.557   0.538   0.544   0.558   0.568   0.581   0.562   0.568   0.559   0.570   0.550   0.582   0.576   0.593   0.587   0.610   0.617   0.600   0.560   0.555   0.582   0.528   0.509   0.555   0.538   0.559   0.558   0.621   0.651   0.713   0.643   0.617   0.663   0.765   0.743   0.773   0.778   0.773   0.744   0.727   0.719   0.735   0.744   0.706   0.738   0.741   0.734   0.713   0.676   0.660   0.670   0.650   0.589   0.595   0.593   0.557   0.569   0.571   0.513   0.556   0.562
   224.20    0.698   0.682   0.650   0.662   0.660   0.698   0.663   0.619   0.566   0.560   0.578   0.613   0.602   0.593   0.575   0.586   0.560   0.512   0.527   0.518   0.516   0.535   0.509   0.530   0.519   0.529   0.512   0.519   0.551   0.574   0.617   0.617   0.571   0.573   0.586   0.566   0.598   0.627   0.606   0.642   0.645   0.694   0.672   0.675   0.631   0.616   0.612   0.560   0.537   0.539   0.502   0.524   0.547   0.535   0.549   0.572   0.584   0.581   0.579   0.529   0.512   0.502   0.535   0.552   0.505   0.540   0.556   0.563   0.570   0.595   0.580   0.569   0.554   0.546   0.571   0.558   0.517   0.521   0.538   0.531   0.529   0.505   0.529   0.549   0.526   0.554   0.563   0.542   0.523   0.494   0.520   0.480   0.488   0.563   0.580   0.548   0.549   0.486   0.523   0.568   0.542   0.553   0.543   0.565   0.583   0.558   0.578   0.616   0.583   0.522   0.555   0.534   0.497   0.514   0.541   0.530   0.545   0.521   0.515   0.471   0.513   0.485   0.487   0.495   0.513   0.504   0.454   0.460   0.501   0.526   0.507   0.523   0.552   0.549   0.532   0.537   0.587   0.569   0.542   0.530   0.519   0.518   0.548   0.563   0.591   0.617   0.567   0.571   0.561   0.558   0.571   0.561   0.564   0.532   0.485   0.540   0.516   0.560   0.553   0.592   0.585   0.659   0.673   0.655   0.676   0.731   0.749   0.758   0.727   0.774   0.752   0.749   0.701   0.653   0.681   0.725   0.752   0.743   0.718   0.701   0.669   0.691   0.683   0.677   0.613   0.601   0.623   0.615   0.621   0.549   0.547   0.556   0.561
   214.90    0.687   0.647   0.669   0.687   0.661   0.668   0.658   0.624   0.605   0.537   0.560   0.570   0.569   0.561   0.553   0.552   0.510   0.490   0.494   0.481   0.509   0.528   0.552   0.539   0.493   0.496   0.504   0.539   0.541   0.564   0.576   0.591   0.591   0.573   0.530   0.563   0.604   0.646   0.644   0.630   0.694   0.659   0.662   0.657   0.665   0.613   0.596   0.565   0.592   0.535   0.526   0.530   0.525   0.518   0.559   0.550   0.538   0.551   0.546   0.539   0.526   0.506   0.528   0.551   0.540   0.583   0.534   0.563   0.592   0.597   0.595   0.582   0.580   0.565   0.565   0.579   0.557   0.525   0.544   0.533   0.537   0.524   0.516   0.534   0.525   0.530   0.529   0.537   0.530   0.509   0.515   0.492   0.528   0.559   0.581   0.575   0.570   0.534   0.537   0.529   0.541   0.567   0.560   0.563   0.556   0.545   0.572   0.559   0.578   0.584   0.536   0.531   0.546   0.523   0.563   0.531   0.561   0.528   0.477   0.489   0.495   0.483   0.488   0.503   0.489   0.500   0.512   0.473   0.505   0.520   0.527   0.548   0.531   0.584   0.556   0.521   0.565   0.540   0.533   0.509   0.522   0.545   0.579   0.540   0.572   0.564   0.573   0.582   0.538   0.540   0.561   0.573   0.533   0.502   0.512   0.507   0.517   0.527   0.516   0.574   0.555   0.597   0.617   0.638   0.700   0.689   0.734   0.767   0.730   0.792   0.744   0.777   0.703   0.662   0.698   0.704   0.733   0.738   0.687   0.666   0.682   0.705   0.660   0.646   0.634   0.654   0.630   0.589   0.584   0.558   0.552   0.517   0.578
   205.60    0.644   0.626   0.647   0.674   0.653   0.649   0.643   0.604   0.561   0.595   0.564   0.530   0.551   0.523   0.536   0.536   0.493   0.508   0.502   0.479   0.527   0.546   0.550   0.567   0.554   0.551   0.543   0.554   0.573   0.561   0.563   0.552   0.585   0.564   0.570   0.541   0.558   0.604   0.638   0.616   0.646   0.667   0.600   0.611   0.615   0.610   0.588   0.606   0.556   0.551   0.540   0.524   0.489   0.498   0.506   0.527   0.540   0.551   0.554   0.531   0.510   0.513   0.514   0.526   0.553   0.529   0.553   0.591   0.634   0.567   0.591   0.585   0.544   0.512   0.554   0.558   0.529   0.540   0.558   0.544   0.540   0.532   0.514   0.529   0.491   0.480   0.524   0.534   0.517   0.530   0.527   0.528   0.546   0.585   0.588   0.517   0.541   0.550   0.561   0.566   0.542   0.524   0.544   0.555   0.517   0.541   0.539   0.564   0.584   0.535   0.545   0.550   0.572   0.557   0.558   0.546   0.541   0.549   0.500   0.462   0.463   0.485   0.518   0.490   0.491   0.481   0.548   0.537   0.519   0.535   0.558   0.522   0.551   0.567   0.567   0.537   0.584   0.576   0.535   0.556   0.566   0.583   0.565   0.573   0.562   0.551   0.548   0.540   0.522   0.524   0.558   0.537   0.541   0.527   0.541   0.508   0.548   0.571   0.539   0.549   0.580   0.571   0.605   0.620   0.661   0.658   0.659   0.706   0.691   0.732   0.717   0.783   0.709   0.718   0.684   0.686   0.710   0.721   0.697   0.679   0.680   0.688   0.684   0.673   0.625   0.609   0.618   0.613   0.569   0.554   0.529   0.582   0.554
   196.30    0.658   0.653   0.621   0.611   0.674   0.664   0.648   0.575   0.576   0.570   0.549   0.539   0.536   0.492   0.487   0.490   0.472   0.490   0.504   0.492   0.500   0.527   0.554   0.560   0.565   0.575   0.558   0.551   0.592   0.564   0.539   0.580   0.570   0.537   0.579   0.559   0.591   0.597   0.584   0.587   0.590   0.632   0.618   0.561   0.562   0.584   0.555   0.527   0.523   0.549   0.513   0.533   0.524   0.518   0.464   0.505   0.503   0.552   0.561   0.562   0.551   0.524   0.573   0.549   0.522   0.542   0.574   0.590   0.591   0.582   0.557   0.547   0.525   0.510   0.518   0.549   0.559   0.503   0.533   0.540   0.561   0.556   0.508   0.490   0.475   0.498   0.512   0.539   0.502   0.488   0.518   0.512   0.532   0.571   0.595   0.551   0.553   0.563   0.561   0.520   0.534   0.568   0.581   0.554   0.529   0.502   0.519   0.568   0.563   0.572   0.544   0.542   0.582   0.592   0.581   0.544   0.579   0.532   0.519   0.476   0.466   0.484   0.491   0.477   0.486   0.499   0.555   0.555   0.549   0.596   0.562   0.584   0.604   0.576   0.579   0.593   0.593   0.564   0.560   0.607   0.649   0.615   0.545   0.563   0.580   0.541   0.495   0.514   0.486   0.494   0.499   0.515   0.504   0.492   0.528   0.552   0.584   0.617   0.559   0.566   0.560   0.571   0.578   0.591   0.623   0.661   0.705   0.698   0.677   0.690   0.719   0.762   0.760   0.721   0.689   0.684   0.707   0.707   0.681   0.664   0.657   0.675   0.703   0.725   0.668   0.639   0.646   0.619   0.602   0.558   0.539   0.600   0.575
   187.00    0.635   0.628   0.571   0.588   0.647   0.642   0.620   0.580   0.555   0.564   0.571   0.573   0.553   0.485   0.501   0.490   0.518   0.508   0.544   0.499   0.523   0.535   0.519   0.548   0.540   0.566   0.564   0.590   0.581   0.560   0.538   0.572   0.542   0.561   0.584   0.557   0.581   0.580   0.581   0.583   0.550   0.570   0.595   0.591   0.572   0.570   0.596   0.572   0.545   0.566   0.507   0.480   0.512   0.491   0.494   0.515   0.527   0.564   0.612   0.585   0.593   0.609   0.624   0.585   0.556   0.523   0.550   0.602   0.584   0.551   0.509   0.510   0.514   0.523   0.524   0.507   0.529   0.492   0.518   0.527   0.560   0.551   0.481   0.474   0.496   0.518   0.520   0.512   0.483   0.446   0.498   0.537   0.547   0.589   0.608   0.577   0.549   0.511   0.499   0.520   0.493   0.544   0.559   0.542   0.564   0.535   0.531   0.583   0.582   0.593   0.571   0.581   0.582   0.605   0.584   0.527   0.563   0.532   0.512   0.507   0.492   0.518   0.533   0.522   0.514   0.517   0.557   0.539   0.547   0.557   0.574   0.587   0.558   0.584   0.563   0.575   0.620   0.624   0.572   0.619   0.680   0.646   0.613   0.575   0.604   0.557   0.538   0.499   0.494   0.484   0.512   0.503   0.507   0.499   0.527   0.554   0.600   0.634   0.564   0.575   0.539   0.563   0.567   0.551   0.586   0.657   0.663   0.703   0.703   0.722   0.720   0.733   0.733   0.676   0.683   0.708   0.696   0.656   0.671   0.699   0.687   0.714   0.728   0.728   0.716   0.683   0.638   0.638   0.610   0.577   0.616   0.586   0.591
   177.70    0.573   0.604   0.566   0.561   0.608   0.650   0.601   0.556   0.600   0.612   0.534   0.549   0.566   0.523   0.521   0.521   0.486   0.455   0.482   0.502   0.503   0.498   0.497   0.485   0.511   0.515   0.556   0.547   0.549   0.568   0.570   0.572   0.569   0.562   0.587   0.538   0.572   0.557   0.582   0.569   0.575   0.550   0.551   0.537   0.545   0.536   0.542   0.585   0.564   0.585   0.520   0.507   0.481   0.472   0.511   0.538   0.534   0.550   0.617   0.591   0.623   0.596   0.603   0.571   0.528   0.537   0.528   0.596   0.577   0.543   0.517   0.509   0.507   0.523   0.484   0.526   0.540   0.505   0.507   0.511   0.520   0.523   0.539   0.504   0.486   0.528   0.535   0.533   0.511   0.493   0.535   0.534   0.576   0.597   0.632   0.587   0.557   0.550   0.534   0.507   0.495   0.528   0.526   0.532   0.532   0.524   0.548   0.570   0.583   0.581   0.551   0.602   0.581   0.584   0.533   0.535   0.519   0.523   0.499   0.532   0.488   0.490   0.534   0.546   0.519   0.517   0.562   0.571   0.548   0.549   0.550   0.534   0.560   0.595   0.577   0.572   0.590   0.619   0.670   0.669   0.670   0.670   0.637   0.597   0.592   0.576   0.554   0.511   0.491   0.515   0.504   0.498   0.511   0.494   0.491   0.539   0.576   0.601   0.583   0.597   0.580   0.579   0.547   0.583   0.558   0.619   0.645   0.692   0.684   0.697   0.725   0.680   0.722   0.679   0.705   0.718   0.707   0.671   0.641   0.686   0.726   0.696   0.666   0.716   0.680   0.721   0.633   0.653   0.622   0.619   0.598   0.585   0.613
   168.40    0.613   0.628   0.577   0.600   0.633   0.594   0.624   0.634   0.628   0.614   0.566   0.565   0.607   0.582   0.519   0.510   0.465   0.464   0.470   0.487   0.495   0.528   0.487   0.505   0.494   0.517   0.550   0.547   0.525   0.542   0.570   0.522   0.550   0.578   0.554   0.566   0.552   0.586   0.613   0.603   0.602   0.584   0.598   0.584   0.558   0.543   0.542   0.584   0.556   0.568   0.492   0.514   0.509   0.502   0.514   0.526   0.584   0.578   0.616   0.641   0.643   0.601   0.562   0.573   0.547   0.542   0.552   0.581   0.619   0.559   0.488   0.521   0.505   0.521   0.500   0.504   0.535   0.506   0.485   0.468   0.489   0.519   0.552   0.534   0.480   0.486   0.517   0.517   0.575   0.545   0.508   0.525   0.562   0.590   0.604   0.623   0.556   0.554   0.539   0.541   0.534   0.552   0.560   0.551   0.549   0.507   0.525   0.560   0.590   0.606   0.590   0.625   0.593   0.587   0.584   0.548   0.526   0.484   0.489   0.520   0.518   0.538   0.547   0.523   0.494   0.510   0.554   0.572   0.563   0.606   0.575   0.572   0.545   0.554   0.562   0.607   0.619   0.618   0.625   0.630   0.658   0.680   0.615   0.611   0.623   0.575   0.534   0.532   0.528   0.513   0.501   0.559   0.526   0.510   0.487   0.521   0.535   0.577   0.585   0.560   0.593   0.624   0.564   0.593   0.583   0.617   0.634   0.648   0.697   0.684   0.703   0.670   0.713   0.728   0.737   0.723   0.687   0.677   0.625   0.691   0.695   0.706   0.712   0.685   0.673   0.679   0.601   0.574   0.613   0.620   0.631   0.611   0.632
   159.10    0.640   0.610   0.575   0.603   0.629   0.605   0.606   0.622   0.626   0.660   0.621   0.630   0.601   0.575   0.569   0.520   0.501   0.503   0.475   0.487   0.478   0.493   0.486   0.531   0.504   0.472   0.519   0.543   0.578   0.567   0.546   0.582   0.551   0.549   0.563   0.559   0.571   0.567   0.609   0.595   0.601   0.621   0.632   0.605   0.555   0.577   0.577   0.547   0.576   0.584   0.530   0.530   0.512   0.522   0.513   0.528   0.541   0.560   0.598   0.643   0.646   0.606   0.585   0.572   0.586   0.545   0.566   0.602   0.628   0.576   0.574   0.575   0.568   0.542   0.528   0.534   0.564   0.544   0.510   0.498   0.503   0.498   0.548   0.536   0.516   0.551   0.515   0.546   0.540   0.540   0.520   0.565   0.560   0.560   0.568   0.565   0.558   0.537   0.546   0.542   0.549   0.549   0.549   0.556   0.550   0.528   0.558   0.602   0.613   0.646   0.632   0.630   0.623   0.563   0.525   0.555   0.500   0.504   0.527   0.529   0.496   0.503   0.545   0.539   0.569   0.527   0.558   0.587   0.575   0.591   0.533   0.545   0.532   0.555   0.574   0.604   0.614   0.601   0.617   0.631   0.640   0.649   0.585   0.620   0.621   0.557   0.530   0.510   0.504   0.527   0.522   0.559   0.533   0.537   0.543   0.511   0.518   0.562   0.622   0.576   0.598   0.596   0.579   0.637   0.672   0.653   0.659   0.671   0.667   0.671   0.707   0.705   0.665   0.699   0.676   0.683   0.709   0.659   0.654   0.678   0.670   0.659   0.676   0.677   0.647   0.586   0.592   0.619   0.635   0.621   0.625   0.656   0.652
   149.80    0.645   0.610   0.632   0.633   0.654   0.602   0.628   0.605   0.627   0.635   0.679   0.629   0.630   0.613   0.529   0.516   0.495   0.501   0.509   0.501   0.490   0.511   0.514   0.507   0.515   0.506   0.535   0.583   0.600   0.554   0.573   0.540   0.553   0.546   0.574   0.612   0.602   0.610   0.583   0.635   0.630   0.620   0.616   0.619   0.610   0.610   0.589   0.575   0.577   0.558   0.544   0.527   0.563   0.515   0.522   0.535   0.563   0.591   0.589   0.636   0.650   0.656   0.619   0.588   0.546   0.556   0.555   0.612   0.645   0.620   0.617   0.576   0.585   0.546   0.561   0.558   0.568   0.537   0.534   0.531   0.514   0.545   0.562   0.548   0.531   0.567   0.536   0.560   0.580   0.539   0.537   0.602   0.583   0.557   0.519   0.521   0.536   0.549   0.550   0.545   0.549   0.559   0.548   0.567   0.546   0.566   0.560   0.606   0.632   0.652   0.652   0.658   0.662   0.579   0.568   0.563   0.531   0.500   0.536   0.514   0.549   0.532   0.537   0.574   0.564   0.588   0.610   0.571   0.578   0.582   0.555   0.537   0.536   0.558   0.583   0.584   0.617   0.606   0.626   0.636   0.647   0.623   0.613   0.608   0.603   0.557   0.588   0.532   0.537   0.561   0.545   0.532   0.532   0.540   0.564   0.533   0.504   0.552   0.566   0.550   0.543   0.600   0.600   0.648   0.676   0.659   0.641   0.669   0.666   0.641   0.680   0.670   0.649   0.653   0.664   0.702   0.650   0.687   0.646   0.644   0.617   0.621   0.658   0.671   0.616   0.602   0.587   0.624   0.641   0.614   0.609   0.642   0.648
   140.50    0.629   0.656   0.603   0.614   0.621   0.593   0.586   0.612   0.620   0.604   0.615   0.617   0.610   0.596   0.547   0.540   0.517   0.484   0.478   0.509   0.500   0.497   0.514   0.501   0.498   0.524   0.587   0.617   0.581   0.579   0.575   0.534   0.568   0.581   0.600   0.589   0.567   0.585   0.623   0.644   0.626   0.618   0.606   0.629   0.615   0.605   0.602   0.589   0.581   0.569   0.551   0.556   0.598   0.575   0.541   0.540   0.556   0.600   0.579   0.595   0.631   0.619   0.640   0.598   0.547   0.556   0.547   0.597   0.629   0.638   0.601   0.565   0.562   0.553   0.572   0.558   0.537   0.549   0.530   0.545   0.519   0.548   0.576   0.539   0.535   0.533   0.556   0.567   0.595   0.561   0.575   0.560   0.526   0.575   0.517   0.508   0.521   0.558   0.596   0.578   0.520   0.534   0.554   0.515   0.560   0.611   0.599   0.641   0.670   0.592   0.608   0.637   0.600   0.588   0.602   0.576   0.555   0.524   0.544   0.511   0.541   0.554   0.511   0.550   0.594   0.609   0.602   0.563   0.584   0.613   0.544   0.575   0.531   0.557   0.570   0.584   0.560   0.630   0.619   0.596   0.646   0.626   0.621   0.626   0.612   0.585   0.592   0.541   0.562   0.562   0.568   0.538   0.546   0.580   0.574   0.578   0.533   0.530   0.537   0.538   0.522   0.548   0.616   0.646   0.709   0.662   0.711   0.671   0.656   0.653   0.619   0.628   0.655   0.668   0.650   0.659   0.638   0.653   0.696   0.605   0.578   0.602   0.632   0.631   0.643   0.637   0.579   0.585   0.607   0.598   0.588   0.618   0.638
   131.20    0.644   0.627   0.611   0.643   0.616   0.598   0.553   0.615   0.613   0.584   0.571   0.607   0.610   0.580   0.591   0.557   0.505   0.523   0.497   0.492   0.494   0.523   0.492   0.507   0.529   0.575   0.577   0.575   0.615   0.592   0.565   0.573   0.564   0.581   0.612   0.579   0.573   0.584   0.563   0.625   0.633   0.656   0.644   0.624   0.625   0.646   0.639   0.625   0.621   0.616   0.584   0.585   0.612   0.578   0.570   0.572   0.555   0.586   0.620   0.594   0.589   0.579   0.571   0.582   0.566   0.555   0.552   0.608   0.636   0.627   0.603   0.588   0.609   0.576   0.568   0.595   0.559   0.542   0.527   0.531   0.523   0.520   0.574   0.559   0.540   0.490   0.558   0.559   0.589   0.570   0.557   0.512   0.518   0.528   0.530   0.503   0.492   0.543   0.583   0.542   0.550   0.545   0.529   0.535   0.555   0.625   0.630   0.654   0.686   0.634   0.599   0.622   0.629   0.612   0.588   0.587   0.562   0.548   0.527   0.520   0.488   0.533   0.496   0.507   0.533   0.566   0.566   0.558   0.633   0.616   0.551   0.582   0.566   0.591   0.586   0.619   0.599   0.592   0.613   0.599   0.635   0.665   0.599   0.636   0.600   0.619   0.615   0.575   0.579   0.605   0.574   0.547   0.557   0.601   0.582   0.591   0.552   0.532   0.545   0.489   0.501   0.585   0.619   0.655   0.658   0.691   0.722   0.666   0.669   0.687   0.661   0.623   0.626   0.643   0.615   0.616   0.585   0.635   0.629   0.624   0.565   0.583   0.638   0.637   0.628   0.660   0.615   0.608   0.646   0.576   0.568   0.613   0.614
   121.90    0.644   0.650   0.621   0.613   0.627   0.634   0.643   0.634   0.606   0.567   0.585   0.574   0.581   0.576   0.548   0.572   0.513   0.498   0.441   0.476   0.498   0.491   0.511   0.487   0.532   0.582   0.566   0.622   0.636   0.597   0.565   0.575   0.574   0.551   0.567   0.530   0.523   0.577   0.596   0.622   0.669   0.667   0.651   0.630   0.640   0.693   0.737   0.689   0.648   0.656   0.619   0.589   0.618   0.589   0.587   0.594   0.530   0.584   0.588   0.606   0.582   0.555   0.566   0.542   0.575   0.613   0.582   0.593   0.593   0.622   0.599   0.587   0.575   0.577   0.598   0.601   0.598   0.588   0.568   0.547   0.553   0.540   0.553   0.563   0.553   0.494   0.499   0.539   0.551   0.565   0.538   0.528   0.535   0.512   0.508   0.491   0.481   0.534   0.562   0.580   0.531   0.530   0.559   0.537   0.595   0.614   0.673   0.694   0.715   0.635   0.613   0.626   0.630   0.620   0.547   0.580   0.568   0.542   0.519   0.475   0.475   0.516   0.483   0.496   0.505   0.552   0.554   0.584   0.603   0.587   0.571   0.559   0.571   0.591   0.627   0.627   0.632   0.609   0.616   0.614   0.636   0.643   0.624   0.608   0.588   0.646   0.644   0.615   0.607   0.595   0.570   0.583   0.581   0.559   0.619   0.574   0.511   0.562   0.511   0.530   0.510   0.583   0.664   0.650   0.663   0.669   0.694   0.681   0.695   0.651   0.603   0.599   0.593   0.605   0.603   0.620   0.645   0.628   0.597   0.620   0.632   0.608   0.656   0.632   0.643   0.621   0.585   0.577   0.626   0.562   0.607   0.618   0.629
   112.60    0.622   0.609   0.659   0.649   0.648   0.665   0.602   0.602   0.571   0.558   0.561   0.545   0.497   0.519   0.543   0.540   0.529   0.503   0.479   0.453   0.483   0.466   0.503   0.510   0.528   0.526   0.554   0.600   0.609   0.567   0.567   0.596   0.558   0.523   0.494   0.547   0.548   0.579   0.585   0.638   0.650   0.668   0.638   0.638   0.656   0.674   0.696   0.633   0.618   0.635   0.594   0.572   0.583   0.589   0.578   0.612   0.546   0.576   0.561   0.563   0.621   0.590   0.549   0.536   0.585   0.616   0.608   0.604   0.642   0.654   0.640   0.608   0.607   0.575   0.605   0.576   0.541   0.564   0.577   0.583   0.559   0.514   0.537   0.571   0.549   0.508   0.500   0.496   0.542   0.561   0.571   0.567   0.550   0.543   0.531   0.532   0.549   0.542   0.558   0.542   0.552   0.588   0.570   0.566   0.592   0.639   0.673   0.710   0.735   0.678   0.652   0.619   0.644   0.583   0.568   0.601   0.581   0.553   0.524   0.546   0.519   0.524   0.539   0.559   0.522   0.572   0.566   0.588   0.578   0.603   0.601   0.599   0.579   0.619   0.607   0.614   0.612   0.643   0.602   0.623   0.659   0.593   0.615   0.587   0.604   0.635   0.647   0.630   0.625   0.593   0.598   0.591   0.568   0.591   0.587   0.585   0.599   0.536   0.536   0.547   0.557   0.582   0.599   0.643   0.675   0.682   0.659   0.657   0.661   0.672   0.644   0.603   0.559   0.573   0.597   0.632   0.648   0.621   0.588   0.565   0.628   0.652   0.635   0.640   0.643   0.607   0.569   0.568   0.617   0.593   0.613   0.644   0.593
   103.30    0.610   0.615   0.644   0.647   0.649   0.617   0.635   0.619   0.580   0.543   0.516   0.493   0.492   0.504   0.512   0.496   0.507   0.516   0.482   0.472   0.502   0.475   0.523   0.523   0.485   0.546   0.582   0.595   0.606   0.597   0.612   0.600   0.547   0.516   0.518   0.544   0.549   0.606   0.603   0.638   0.645   0.622   0.633   0.656   0.631   0.650   0.621   0.570   0.565   0.569   0.535   0.542   0.588   0.591   0.592   0.601   0.577   0.545   0.571   0.578   0.554   0.558   0.522   0.527   0.590   0.642   0.648   0.647   0.666   0.671   0.627   0.606   0.579   0.616   0.585   0.570   0.541   0.547   0.554   0.586   0.563   0.539   0.549   0.560   0.577   0.539   0.541   0.550   0.550   0.551   0.563   0.582   0.565   0.553   0.545   0.564   0.551   0.535   0.572   0.549   0.536   0.590   0.595   0.615   0.651   0.633   0.617   0.685   0.708   0.737   0.691   0.663   0.669   0.623   0.589   0.579   0.574   0.577   0.569   0.563   0.547   0.539   0.570   0.557   0.536   0.563   0.553   0.600   0.608   0.589   0.595   0.622   0.582   0.607   0.608   0.600   0.588   0.623   0.635   0.617   0.601   0.577   0.605   0.605   0.603   0.664   0.673   0.659   0.654   0.642   0.647   0.595   0.580   0.553   0.559   0.566   0.566   0.562   0.569   0.550   0.568   0.585   0.629   0.681   0.668   0.674   0.642   0.600   0.631   0.626   0.624   0.589   0.584   0.550   0.573   0.602   0.582   0.595   0.591   0.601   0.613   0.658   0.696   0.684   0.664   0.635   0.594   0.560   0.601   0.649   0.639   0.635   0.631
    94.00    0.573   0.609   0.630   0.640   0.687   0.671   0.649   0.610   0.562   0.497   0.512   0.496   0.529   0.516   0.508   0.494   0.519   0.504   0.483   0.514   0.483   0.512   0.499   0.498   0.518   0.545   0.583   0.567   0.551   0.572   0.633   0.591   0.584   0.502   0.478   0.519   0.530   0.570   0.604   0.586   0.583   0.602   0.614   0.605   0.585   0.620   0.559   0.527   0.541   0.528   0.493   0.502   0.570   0.569   0.545   0.593   0.595   0.578   0.568   0.563   0.511   0.522   0.525   0.540   0.571   0.610   0.646   0.646   0.618   0.674   0.687   0.596   0.628   0.598   0.591   0.561   0.564   0.574   0.598   0.594   0.564   0.589   0.566   0.551   0.558   0.566   0.578   0.546   0.549   0.554   0.559   0.572   0.590   0.567   0.546   0.548   0.532   0.548   0.580   0.591   0.615   0.591   0.622   0.648   0.630   0.616   0.633   0.685   0.710   0.711   0.738   0.674   0.668   0.649   0.628   0.603   0.563   0.550   0.562   0.575   0.559   0.546   0.565   0.598   0.565   0.603   0.577   0.611   0.625   0.643   0.644   0.595   0.591   0.603   0.617   0.604   0.653   0.621   0.612   0.645   0.609   0.617   0.605   0.649   0.664   0.658   0.659   0.650   0.664   0.653   0.634   0.633   0.638   0.580   0.587   0.572   0.592   0.581   0.585   0.557   0.544   0.564   0.596   0.617   0.671   0.652   0.566   0.579   0.608   0.566   0.578   0.576   0.604   0.585   0.572   0.575   0.613   0.569   0.571   0.554   0.605   0.647   0.681   0.693   0.662   0.644   0.595   0.571   0.591   0.619   0.658   0.611   0.604
    84.70    0.571   0.612   0.612   0.608   0.653   0.671   0.614   0.610   0.562   0.550   0.551   0.541   0.542   0.534   0.510   0.514   0.486   0.485   0.530   0.521   0.477   0.518   0.482   0.509   0.520   0.573   0.618   0.590   0.565   0.572   0.595   0.605   0.569   0.513   0.495   0.526   0.540   0.557   0.594   0.608   0.568   0.550   0.547   0.567   0.556   0.553   0.549   0.506   0.542   0.510   0.494   0.521   0.528   0.566   0.535   0.566   0.560   0.593   0.601   0.569   0.538   0.549   0.551   0.534   0.561   0.606   0.619   0.637   0.636   0.655   0.676   0.633   0.593   0.604   0.582   0.584   0.575   0.599   0.566   0.601   0.579   0.614   0.584   0.592   0.551   0.571   0.584   0.565   0.521   0.552   0.569   0.565   0.588   0.546   0.551   0.560   0.584   0.574   0.576   0.630   0.615   0.608   0.650   0.629   0.630   0.599   0.606   0.671   0.692   0.729   0.704   0.693   0.700   0.661   0.615   0.620   0.588   0.573   0.555   0.586   0.594   0.620   0.607   0.617   0.611   0.580   0.600   0.616   0.612   0.654   0.635   0.641   0.595   0.599   0.594   0.628   0.614   0.608   0.631   0.610   0.648   0.673   0.613   0.634   0.632   0.586   0.600   0.650   0.651   0.666   0.645   0.659   0.631   0.595   0.606   0.564   0.594   0.561   0.550   0.569   0.500   0.534   0.560   0.575   0.621   0.607   0.575   0.579   0.592   0.628   0.580   0.627   0.612   0.589   0.575   0.591   0.616   0.564   0.600   0.553   0.590   0.613   0.636   0.616   0.612   0.620   0.610   0.599   0.622   0.650   0.666   0.654   0.646
    75.40    0.615   0.633   0.588   0.575   0.635   0.608   0.611   0.604   0.570   0.582   0.560   0.543   0.511   0.511   0.477   0.492   0.505   0.495   0.485   0.525   0.476   0.511   0.526   0.511   0.525   0.603   0.647   0.612   0.599   0.583   0.600   0.587   0.575   0.513   0.536   0.548   0.500   0.539   0.572   0.578   0.572   0.554   0.554   0.564   0.564   0.545   0.527   0.499   0.502   0.493   0.455   0.486   0.537   0.552   0.568   0.549   0.549   0.587   0.595   0.581   0.563   0.601   0.614   0.580   0.600   0.630   0.593   0.641   0.657   0.647   0.633   0.659   0.634   0.607   0.568   0.536   0.559   0.572   0.532   0.548   0.601   0.601   0.600   0.575   0.580   0.573   0.542   0.539   0.532   0.522   0.536   0.518   0.543   0.573   0.573   0.544   0.576   0.567   0.581   0.606   0.601   0.618   0.621   0.608   0.611   0.619   0.648   0.691   0.662   0.699   0.720   0.678   0.674   0.646   0.626   0.592   0.585   0.552   0.533   0.592   0.605   0.601   0.587   0.638   0.639   0.648   0.608   0.613   0.631   0.635   0.670   0.637   0.581   0.597   0.615   0.573   0.566   0.611   0.619   0.604   0.625   0.653   0.644   0.656   0.646   0.610   0.610   0.642   0.645   0.651   0.670   0.656   0.629   0.555   0.566   0.593   0.565   0.595   0.551   0.522   0.533   0.552   0.592   0.575   0.595   0.571   0.584   0.580   0.548   0.597   0.591   0.595   0.590   0.574   0.625   0.603   0.595   0.586   0.536   0.575   0.530   0.565   0.605   0.605   0.619   0.614   0.611   0.651   0.613   0.640   0.631   0.638   0.616
    66.10    0.622   0.638   0.643   0.604   0.630   0.656   0.628   0.595   0.571   0.582   0.587   0.513   0.495   0.499   0.519   0.507   0.496   0.487   0.526   0.528   0.492   0.548   0.506   0.552   0.571   0.628   0.636   0.636   0.592   0.565   0.556   0.569   0.574   0.558   0.503   0.512   0.540   0.543   0.571   0.587   0.587   0.549   0.552   0.548   0.529   0.523   0.479   0.533   0.538   0.507   0.485   0.524   0.514   0.566   0.551   0.562   0.602   0.650   0.697   0.615   0.588   0.595   0.611   0.645   0.666   0.622   0.616   0.660   0.663   0.623   0.618   0.633   0.611   0.616   0.617   0.579   0.574   0.594   0.544   0.538   0.570   0.615   0.615   0.578   0.580   0.549   0.557   0.576   0.555   0.544   0.543   0.498   0.543   0.565   0.569   0.558   0.582   0.590   0.622   0.597   0.594   0.587   0.606   0.593   0.611   0.648   0.640   0.670   0.657   0.692   0.741   0.679   0.670   0.654   0.684   0.616   0.567   0.585   0.578   0.584   0.620   0.591   0.615   0.626   0.648   0.673   0.655   0.613   0.638   0.651   0.643   0.615   0.543   0.588   0.583   0.582   0.585   0.650   0.643   0.676   0.689   0.660   0.665   0.655   0.659   0.597   0.626   0.642   0.630   0.699   0.665   0.641   0.650   0.617   0.619   0.612   0.590   0.589   0.562   0.535   0.539   0.570   0.569   0.570   0.591   0.541   0.560   0.608   0.578   0.616   0.554   0.559   0.626   0.629   0.622   0.650   0.609   0.568   0.516   0.521   0.549   0.552   0.570   0.609   0.614   0.622   0.604   0.609   0.631   0.623   0.600   0.613   0.615
    56.80    0.596   0.603   0.617   0.610   0.614   0.637   0.595   0.564   0.579   0.563   0.563   0.528   0.507   0.480   0.467   0.457   0.494   0.505   0.530   0.503   0.516   0.524   0.510   0.593   0.641   0.592   0.621   0.602   0.562   0.554   0.540   0.517   0.559   0.529   0.530   0.543   0.538   0.544   0.557   0.569   0.536   0.514   0.579   0.543   0.530   0.530   0.512   0.543   0.543   0.519   0.503   0.489   0.534   0.550   0.551   0.597   0.615   0.620   0.698   0.695   0.624   0.624   0.603   0.659   0.670   0.607   0.624   0.618   0.598   0.586   0.595   0.599   0.606   0.604   0.586   0.588   0.592   0.591   0.589   0.611   0.586   0.605   0.568   0.568   0.530   0.547   0.538   0.560   0.577   0.576   0.560   0.508   0.581   0.576   0.589   0.577   0.601   0.601   0.597   0.601   0.585   0.589   0.600   0.587   0.649   0.663   0.699   0.684   0.641   0.692   0.712   0.693   0.624   0.636   0.667   0.637   0.576   0.572   0.589   0.619   0.614   0.600   0.588   0.612   0.673   0.678   0.656   0.650   0.657   0.612   0.623   0.609   0.557   0.536   0.552   0.568   0.572   0.642   0.679   0.673   0.670   0.665   0.678   0.678   0.691   0.674   0.650   0.652   0.697   0.690   0.674   0.648   0.652   0.624   0.604   0.563   0.567   0.578   0.561   0.564   0.610   0.634   0.614   0.571   0.570   0.551   0.629   0.620   0.548   0.593   0.616   0.597   0.649   0.643   0.678   0.668   0.651   0.611   0.566   0.560   0.500   0.560   0.544   0.545   0.559   0.586   0.613   0.606   0.576   0.589   0.580   0.583   0.640
    47.50    0.631   0.585   0.585   0.564   0.599   0.601   0.559   0.512   0.531   0.533   0.556   0.548   0.549   0.492   0.478   0.439   0.486   0.505   0.503   0.447   0.481   0.513   0.565   0.607   0.600   0.615   0.591   0.619   0.589   0.534   0.503   0.541   0.537   0.523   0.536   0.534   0.498   0.544   0.590   0.566   0.527   0.502   0.553   0.573   0.533   0.565   0.557   0.588   0.574   0.542   0.551   0.571   0.529   0.544   0.570   0.580   0.605   0.667   0.698   0.666   0.656   0.674   0.664   0.695   0.649   0.616   0.580   0.609   0.560   0.558   0.558   0.569   0.584   0.568   0.577   0.558   0.568   0.565   0.579   0.588   0.598   0.610   0.605   0.580   0.559   0.538   0.546   0.563   0.582   0.583   0.593   0.573   0.592   0.585   0.556   0.561   0.593   0.575   0.593   0.586   0.589   0.599   0.620   0.617   0.658   0.664   0.708   0.703   0.685   0.630   0.653   0.680   0.654   0.610   0.641   0.626   0.572   0.572   0.552   0.588   0.591   0.604   0.589   0.592   0.623   0.664   0.684   0.633   0.655   0.611   0.565   0.591   0.528   0.568   0.572   0.585   0.590   0.641   0.632   0.649   0.674   0.697   0.686   0.681   0.647   0.642   0.646   0.620   0.677   0.671   0.649   0.656   0.640   0.588   0.569   0.544   0.558   0.625   0.610   0.608   0.630   0.623   0.632   0.620   0.621   0.597   0.638   0.628   0.577   0.618   0.660   0.665   0.630   0.689   0.708   0.671   0.633   0.618   0.592   0.537   0.512   0.558   0.589   0.592   0.628   0.577   0.609   0.602   0.591   0.602   0.591   0.581   0.606
    38.20    0.591   0.573   0.554   0.556   0.560   0.529   0.496   0.535   0.546   0.529   0.538   0.558   0.556   0.491   0.468   0.473   0.501   0.461   0.459   0.439   0.469   0.520   0.568   0.592   0.620   0.641   0.576   0.552   0.563   0.558   0.521   0.526   0.565   0.546   0.548   0.546   0.534   0.551   0.596   0.595   0.582   0.561   0.526   0.536   0.556   0.532   0.568   0.567   0.597   0.608   0.626   0.579   0.556   0.547   0.549   0.562   0.636   0.666   0.682   0.691   0.660   0.653   0.692   0.690   0.649   0.632   0.626   0.643   0.596   0.595   0.586   0.557   0.587   0.599   0.575   0.610   0.583   0.603   0.575   0.574   0.554   0.573   0.578   0.570   0.522   0.546   0.543   0.594   0.598   0.623   0.613   0.583   0.557   0.585   0.572   0.558   0.549   0.541   0.569   0.563   0.556   0.564   0.594   0.617   0.651   0.650   0.667   0.655   0.643   0.653   0.604   0.633   0.639   0.615   0.602   0.567   0.575   0.541   0.528   0.555   0.583   0.626   0.662   0.667   0.629   0.668   0.721   0.638   0.659   0.648   0.616   0.585   0.565   0.547   0.559   0.564   0.624   0.598   0.638   0.624   0.619   0.664   0.645   0.658   0.641   0.630   0.650   0.671   0.665   0.651   0.625   0.639   0.610   0.604   0.570   0.529   0.601   0.668   0.646   0.629   0.656   0.645   0.625   0.608   0.624   0.639   0.666   0.681   0.641   0.647   0.647   0.659   0.629   0.682   0.715   0.693   0.651   0.614   0.541   0.537   0.519   0.587   0.587   0.600   0.641   0.613   0.594   0.591   0.567   0.591   0.581   0.574   0.581
    28.90    0.518   0.527   0.583   0.566   0.583   0.511   0.530   0.556   0.576   0.536   0.547   0.550   0.510   0.487   0.498   0.466   0.469   0.416   0.446   0.460   0.502   0.524   0.578   0.582   0.590   0.614   0.597   0.641   0.590   0.607   0.575   0.576   0.575   0.568   0.583   0.540   0.557   0.556   0.594   0.586   0.570   0.505   0.515   0.550   0.555   0.539   0.573   0.562   0.567   0.622   0.623   0.585   0.591   0.618   0.570   0.591   0.628   0.667   0.661   0.652   0.655   0.681   0.687   0.648   0.662   0.594   0.584   0.640   0.596   0.564   0.555   0.586   0.588   0.620   0.614   0.613   0.576   0.573   0.542   0.566   0.519   0.517   0.517   0.579   0.586   0.607   0.604   0.607   0.601   0.629   0.629   0.614   0.560   0.616   0.568   0.562   0.549   0.515   0.511   0.572   0.593   0.585   0.615   0.601   0.615   0.613   0.652   0.689   0.672   0.640   0.588   0.616   0.609   0.605   0.613   0.588   0.599   0.620   0.561   0.550   0.580   0.614   0.672   0.667   0.683   0.672   0.688   0.640   0.661   0.610   0.635   0.589   0.575   0.602   0.600   0.597   0.598   0.585   0.638   0.604   0.610   0.613   0.615   0.633   0.648   0.633   0.647   0.679   0.694   0.656   0.638   0.606   0.637   0.587   0.588   0.570   0.586   0.630   0.622   0.642   0.633   0.636   0.651   0.613   0.657   0.687   0.697   0.697   0.698   0.660   0.624   0.625   0.630   0.661   0.673   0.670   0.639   0.612   0.560   0.552   0.540   0.586   0.582   0.551   0.583   0.605   0.660   0.623   0.570   0.553   0.584   0.598   0.607
    19.60    0.535   0.511   0.541   0.536   0.581   0.553   0.543   0.537   0.565   0.565   0.561   0.526   0.501   0.480   0.477   0.466   0.449   0.441   0.455   0.468   0.482   0.501   0.555   0.573   0.527   0.596   0.617   0.652   0.613   0.594   0.584   0.566   0.593   0.622   0.578   0.563   0.561   0.568   0.570   0.550   0.571   0.515   0.552   0.598   0.586   0.590   0.607   0.582   0.604   0.616   0.624   0.625   0.612   0.580   0.604   0.624   0.640   0.642   0.626   0.608   0.624   0.670   0.661   0.665   0.655   0.615   0.601   0.596   0.604   0.612   0.579   0.603   0.623   0.641   0.622   0.620   0.617   0.590   0.556   0.515   0.539   0.530   0.524   0.599   0.642   0.616   0.605   0.610   0.616   0.616   0.609   0.600   0.633   0.638   0.609   0.543   0.504   0.510   0.514   0.583   0.605   0.588   0.614   0.596   0.585   0.581   0.629   0.639   0.649   0.598   0.585   0.569   0.617   0.599   0.609   0.628   0.631   0.592   0.574   0.566   0.607   0.607   0.631   0.679   0.658   0.658   0.634   0.650   0.647   0.594   0.639   0.593   0.580   0.596   0.598   0.547   0.549   0.620   0.642   0.591   0.627   0.632   0.611   0.660   0.665   0.658   0.657   0.641   0.656   0.663   0.610   0.604   0.638   0.590   0.547   0.527   0.599   0.656   0.678   0.665   0.629   0.653   0.687   0.653   0.670   0.694   0.722   0.718   0.673   0.640   0.591   0.582   0.589   0.634   0.656   0.621   0.602   0.547   0.598   0.575   0.558   0.547   0.548   0.519   0.565   0.588   0.612   0.624   0.589   0.576   0.585   0.570   0.612
    10.30    0.530   0.535   0.560   0.548   0.537   0.534   0.550   0.587   0.570   0.527   0.555   0.514   0.517   0.506   0.497   0.463   0.461   0.502   0.489   0.531   0.521   0.530   0.558   0.560   0.550   0.566   0.547   0.617   0.627   0.614   0.596   0.630   0.603   0.583   0.599   0.553   0.580   0.562   0.555   0.565   0.545   0.546   0.577   0.598   0.574   0.581   0.580   0.556   0.627   0.641   0.617   0.612   0.594   0.602   0.636   0.633   0.617   0.643   0.613   0.626   0.669   0.629   0.677   0.670   0.661   0.672   0.617   0.630   0.586   0.611   0.618   0.629   0.634   0.640   0.627   0.629   0.625   0.589   0.571   0.587   0.557   0.623   0.614   0.624   0.632   0.632   0.636   0.641   0.634   0.587   0.641   0.625   0.632   0.625   0.587   0.554   0.512   0.541   0.539   0.572   0.580   0.577   0.587   0.550   0.559   0.600   0.651   0.644   0.636   0.582   0.565   0.548   0.572   0.597   0.580   0.642   0.668   0.610   0.596   0.564   0.591   0.627   0.582   0.653   0.637   0.660   0.615   0.587   0.594   0.561   0.620   0.602   0.603   0.583   0.558   0.544   0.554   0.590   0.615   0.595   0.588   0.614   0.630   0.669   0.694   0.665   0.675   0.655   0.652   0.665   0.616   0.647   0.597   0.594   0.570   0.586   0.577   0.647   0.683   0.640   0.637   0.668   0.664   0.697   0.718   0.659   0.683   0.700   0.638   0.623   0.617   0.630   0.605   0.611   0.601   0.584   0.579   0.585   0.544   0.547   0.557   0.545   0.545   0.539   0.578   0.585   0.602   0.622   0.626   0.599   0.566   0.605   0.624
     1.00    0.573   0.533   0.556   0.559   0.556   0.559   0.536   0.577   0.537   0.539   0.518   0.536   0.547   0.511   0.490   0.452   0.493   0.539   0.557   0.560   0.543   0.531   0.552   0.545   0.523   0.558   0.564   0.603   0.631   0.623   0.614   0.650   0.616   0.606   0.572   0.565   0.544   0.543   0.534   0.525   0.536   0.552   0.563   0.566   0.570   0.583   0.574   0.576   0.605   0.618   0.616   0.618   0.557   0.581   0.649   0.653   0.635   0.683   0.614   0.630   0.660   0.676   0.629   0.672   0.636   0.654   0.651   0.646   0.640   0.614   0.624   0.598   0.602   0.590   0.568   0.616   0.642   0.653   0.607   0.605   0.557   0.618   0.624   0.636   0.593   0.614   0.615   0.632   0.642   0.581   0.622   0.626   0.641   0.619   0.588   0.551   0.546   0.584   0.589   0.609   0.642   0.622   0.583   0.549   0.539   0.579   0.595   0.644   0.621   0.576   0.533   0.582   0.549   0.573   0.577   0.631   0.667   0.623   0.614   0.587   0.634   0.614   0.606   0.621   0.648   0.668   0.622   0.575   0.600   0.588   0.601   0.656   0.620   0.571   0.568   0.530   0.543   0.574   0.591   0.584   0.594   0.586   0.613   0.639   0.622   0.664   0.634   0.643   0.638   0.651   0.678   0.666   0.603   0.626   0.597   0.594   0.631   0.647   0.658   0.622   0.630   0.634   0.624   0.662   0.695   0.659   0.678   0.658   0.676   0.646   0.630   0.604   0.616   0.632   0.616   0.597   0.575   0.549   0.566   0.545   0.521   0.536   0.544   0.522   0.553   0.584   0.610   0.617   0.591   0.573   0.602   0.565   0.615

   Height   Standard deviation at grid points for the v component:
   354.40    0.462   0.472   0.486   0.496   0.480   0.450   0.446   0.427   0.429   0.430   0.445   0.471   0.477   0.450   0.466   0.452   0.457   0.448   0.463   0.448   0.463   0.433   0.441   0.445   0.454   0.446   0.466   0.463   0.468   0.459   0.450   0.406   0.394   0.427   0.452   0.453   0.457   0.429   0.435   0.439   0.432   0.437   0.458   0.465   0.459   0.478   0.482   0.466   0.466   0.463   0.455   0.469   0.474   0.466   0.477   0.458   0.459   0.441   0.473   0.468   0.449   0.443   0.454   0.453   0.464   0.483   0.491   0.474   0.491   0.482   0.469   0.477   0.476   0.483   0.471   0.452   0.452   0.447   0.437   0.430   0.449   0.432   0.427   0.429   0.452   0.458   0.449   0.431   0.434   0.438   0.401   0.412   0.423   0.404   0.437   0.445   0.415   0.423   0.433   0.449   0.432   0.430   0.435   0.437   0.455   0.436   0.441   0.442   0.485   0.498   0.474   0.483   0.476   0.483   0.473   0.476   0.491   0.467   0.484   0.494   0.450   0.469   0.458   0.458   0.436   0.428   0.439   0.438   0.430   0.438   0.448   0.480   0.460   0.453   0.435   0.429   0.440   0.467   0.485   0.512   0.501   0.475   0.467   0.481   0.481   0.471   0.481   0.500   0.484   0.476   0.475   0.514   0.507   0.478   0.466   0.448   0.446   0.451   0.457   0.474   0.455   0.478   0.455   0.471   0.488   0.494   0.495   0.504   0.487   0.505   0.473   0.474   0.479   0.483   0.488   0.490   0.523   0.521   0.528   0.520   0.502   0.518   0.486   0.521   0.511   0.526   0.522   0.529   0.507   0.509   0.512   0.506   0.477
   345.10    0.480   0.479   0.475   0.459   0.460   0.427   0.425   0.429   0.433   0.438   0.457   0.452   0.449   0.435   0.439   0.450   0.459   0.431   0.431   0.443   0.447   0.441   0.438   0.424   0.479   0.472   0.448   0.441   0.429   0.452   0.460   0.448   0.448   0.444   0.446   0.464   0.456   0.431   0.420   0.435   0.447   0.477   0.485   0.488   0.487   0.468   0.478   0.471   0.475   0.481   0.467   0.487   0.494   0.459   0.467   0.474   0.445   0.433   0.432   0.442   0.441   0.434   0.473   0.467   0.483   0.479   0.501   0.498   0.481   0.474   0.462   0.476   0.474   0.468   0.450   0.474   0.481   0.473   0.434   0.446   0.433   0.419   0.421   0.443   0.458   0.454   0.450   0.416   0.426   0.414   0.403   0.391   0.409   0.425   0.414   0.417   0.428   0.411   0.428   0.428   0.429   0.417   0.432   0.428   0.452   0.451   0.461   0.464   0.463   0.488   0.485   0.484   0.470   0.479   0.478   0.457   0.489   0.465   0.474   0.476   0.495   0.474   0.468   0.434   0.444   0.451   0.459   0.466   0.453   0.431   0.430   0.457   0.471   0.463   0.474   0.446   0.439   0.480   0.496   0.480   0.479   0.492   0.474   0.475   0.466   0.465   0.473   0.483   0.507   0.474   0.488   0.507   0.498   0.462   0.464   0.470   0.497   0.483   0.492   0.477   0.486   0.484   0.474   0.454   0.475   0.495   0.501   0.522   0.517   0.516   0.512   0.480   0.476   0.492   0.468   0.504   0.520   0.514   0.505   0.511   0.501   0.478   0.482   0.477   0.510   0.537   0.512   0.504   0.498   0.488   0.498   0.489   0.467
   335.80    0.469   0.473   0.479   0.488   0.464   0.428   0.418   0.424   0.419   0.437   0.442   0.437   0.447   0.479   0.436   0.421   0.433   0.456   0.436   0.442   0.446   0.447   0.446   0.465   0.472   0.460   0.447   0.405   0.437   0.462   0.453   0.449   0.444   0.464   0.468   0.470   0.456   0.440   0.423   0.459   0.491   0.538   0.513   0.527   0.501   0.470   0.464   0.461   0.462   0.484   0.460   0.493   0.506   0.490   0.487   0.475   0.448   0.448   0.421   0.444   0.457   0.469   0.455   0.481   0.485   0.484   0.478   0.485   0.491   0.467   0.457   0.457   0.454   0.447   0.467   0.457   0.471   0.474   0.434   0.435   0.455   0.434   0.432   0.448   0.452   0.434   0.452   0.430   0.417   0.399   0.404   0.401   0.415   0.421   0.402   0.409   0.418   0.426   0.444   0.447   0.419   0.430   0.435   0.436   0.423   0.447   0.438   0.463   0.465   0.480   0.473   0.502   0.497   0.480   0.481   0.452   0.458   0.450   0.428   0.457   0.471   0.451   0.441   0.445   0.450   0.460   0.468   0.474   0.438   0.441   0.440   0.457   0.453   0.470   0.469   0.477   0.454   0.478   0.479   0.480   0.481   0.487   0.491   0.474   0.494   0.503   0.459   0.471   0.471   0.481   0.494   0.492   0.478   0.465   0.454   0.475   0.481   0.492   0.501   0.448   0.473   0.499   0.465   0.437   0.455   0.478   0.487   0.497   0.489   0.511   0.506   0.493   0.493   0.464   0.486   0.516   0.505   0.508   0.515   0.497   0.471   0.476   0.475   0.489   0.501   0.514   0.502   0.480   0.474   0.479   0.489   0.500   0.462
   326.50    0.484   0.488   0.502   0.470   0.468   0.449   0.436   0.416   0.424   0.414   0.417   0.444   0.461   0.481   0.467   0.443   0.443   0.439   0.456   0.437   0.443   0.446   0.462   0.473   0.456   0.438   0.447   0.442   0.458   0.436   0.434   0.442   0.445   0.454   0.451   0.476   0.466   0.454   0.472   0.468   0.480   0.510   0.518   0.499   0.474   0.471   0.462   0.483   0.486   0.477   0.464   0.475   0.484   0.505   0.478   0.429   0.441   0.466   0.458   0.434   0.433   0.463   0.467   0.482   0.481   0.462   0.458   0.475   0.464   0.437   0.426   0.434   0.432   0.449   0.475   0.454   0.466   0.464   0.460   0.451   0.456   0.467   0.454   0.465   0.454   0.440   0.465   0.433   0.435   0.428   0.414   0.407   0.433   0.406   0.432   0.442   0.431   0.438   0.435   0.465   0.441   0.428   0.440   0.429   0.439   0.443   0.439   0.462   0.477   0.466   0.455   0.478   0.483   0.458   0.454   0.421   0.458   0.450   0.455   0.466   0.484   0.437   0.444   0.444   0.446   0.455   0.455   0.437   0.423   0.434   0.425   0.445   0.443   0.461   0.470   0.486   0.479   0.487   0.503   0.492   0.487   0.497   0.517   0.484   0.492   0.467   0.482   0.489   0.484   0.508   0.483   0.482   0.460   0.473   0.465   0.469   0.458   0.460   0.442   0.465   0.479   0.486   0.473   0.450   0.460   0.492   0.504   0.496   0.500   0.506   0.515   0.490   0.461   0.452   0.470   0.495   0.509   0.512   0.501   0.525   0.500   0.497   0.479   0.516   0.511   0.503   0.472   0.464   0.469   0.490   0.495   0.501   0.483
[...]
   103.30    0.283   0.278   0.285   0.285   0.295   0.285   0.286   0.286   0.279   0.289   0.289   0.286   0.284   0.291   0.289   0.278   0.278   0.278   0.268   0.270   0.268   0.275   0.282   0.283   0.277   0.283   0.293   0.297   0.291   0.292   0.295   0.282   0.281   0.279   0.279   0.296   0.284   0.274   0.276   0.281   0.285   0.283   0.282   0.280   0.276   0.284   0.286   0.293   0.289   0.279   0.275   0.279   0.262   0.283   0.291   0.280   0.272   0.279   0.280   0.285   0.282   0.285   0.295   0.286   0.290   0.287   0.287   0.277   0.284   0.289   0.282   0.278   0.269   0.276   0.279   0.281   0.273   0.273   0.283   0.288   0.287   0.285   0.288   0.289   0.284   0.292   0.286   0.294   0.285   0.278   0.284   0.292   0.293   0.293   0.305   0.304   0.293   0.294   0.293   0.294   0.281   0.286   0.290   0.300   0.301   0.282   0.284   0.290   0.291   0.294   0.292   0.277   0.282   0.270   0.273   0.281   0.271   0.278   0.270   0.272   0.269   0.269   0.277   0.283   0.276   0.283   0.290   0.288   0.280   0.275   0.285   0.282   0.281   0.267   0.273   0.276   0.282   0.282   0.281   0.281   0.272   0.281   0.273   0.286   0.279   0.288   0.293   0.278   0.287   0.297   0.292   0.287   0.289   0.289   0.287   0.291   0.290   0.294   0.286   0.283   0.278   0.287   0.289   0.292   0.283   0.295   0.301   0.301   0.297   0.288   0.286   0.291   0.287   0.277   0.268   0.271   0.273   0.271   0.279   0.283   0.275   0.270   0.270   0.286   0.283   0.287   0.293   0.286   0.283   0.295   0.290   0.290   0.282
    94.00    0.279   0.277   0.281   0.293   0.298   0.288   0.277   0.277   0.272   0.276   0.286   0.284   0.276   0.287   0.284   0.287   0.282   0.285   0.275   0.271   0.275   0.278   0.285   0.285   0.286   0.279   0.286   0.295   0.289   0.276   0.277   0.281   0.280   0.274   0.275   0.292   0.287   0.284   0.273   0.277   0.281   0.286   0.279   0.287   0.285   0.285   0.279   0.280   0.284   0.283   0.271   0.275   0.274   0.277   0.286   0.279   0.289   0.278   0.290   0.284   0.279   0.297   0.293   0.291   0.283   0.276   0.282   0.278   0.285   0.289   0.280   0.282   0.276   0.279   0.280   0.276   0.274   0.278   0.285   0.277   0.295   0.291   0.282   0.293   0.285   0.285   0.290   0.292   0.288   0.289   0.292   0.292   0.293   0.305   0.297   0.289   0.288   0.299   0.293   0.295   0.298   0.296   0.286   0.298   0.294   0.289   0.299   0.298   0.297   0.290   0.283   0.271   0.283   0.278   0.284   0.288   0.283   0.282   0.282   0.274   0.278   0.277   0.269   0.277   0.287   0.278   0.282   0.279   0.286   0.276   0.286   0.290   0.281   0.287   0.276   0.282   0.279   0.279   0.289   0.279   0.278   0.284   0.284   0.295   0.293   0.290   0.293   0.295   0.280   0.291   0.301   0.294   0.291   0.280   0.289   0.291   0.283   0.291   0.288   0.293   0.282   0.284   0.276   0.281   0.286   0.280   0.296   0.302   0.298   0.290   0.286   0.291   0.288   0.270   0.286   0.268   0.270   0.271   0.276   0.283   0.290   0.279   0.273   0.280   0.277   0.278   0.277   0.288   0.290   0.295   0.293   0.289   0.290
    84.70    0.284   0.277   0.292   0.306   0.293   0.293   0.292   0.290   0.291   0.289   0.280   0.277   0.276   0.287   0.281   0.287   0.285   0.282   0.284   0.273   0.274   0.287   0.281   0.292   0.287   0.282   0.287   0.296   0.295   0.294   0.282   0.274   0.265   0.266   0.277   0.281   0.279   0.270   0.272   0.276   0.276   0.286   0.279   0.282   0.281   0.287   0.285   0.280   0.277   0.279   0.286   0.289   0.288   0.289   0.290   0.289   0.283   0.278   0.285   0.287   0.292   0.294   0.291   0.286   0.281   0.281   0.288   0.289   0.280   0.287   0.289   0.281   0.278   0.291   0.283   0.283   0.284   0.280   0.281   0.290   0.292   0.287   0.300   0.286   0.292   0.289   0.290   0.290   0.282   0.289   0.293   0.292   0.291   0.299   0.297   0.297   0.293   0.294   0.297   0.300   0.297   0.292   0.287   0.288   0.283   0.284   0.284   0.281   0.287   0.295   0.283   0.277   0.278   0.286   0.296   0.294   0.284   0.282   0.277   0.273   0.285   0.278   0.277   0.273   0.281   0.285   0.278   0.285   0.288   0.279   0.285   0.286   0.286   0.278   0.285   0.274   0.284   0.290   0.281   0.277   0.279   0.291   0.289   0.299   0.289   0.288   0.292   0.297   0.297   0.293   0.290   0.289   0.288   0.276   0.281   0.292   0.292   0.290   0.290   0.288   0.290   0.282   0.284   0.278   0.283   0.280   0.293   0.291   0.295   0.287   0.294   0.288   0.282   0.276   0.278   0.275   0.271   0.279   0.281   0.281   0.285   0.282   0.274   0.279   0.270   0.279   0.287   0.283   0.289   0.294   0.293   0.295   0.302
    75.40    0.281   0.288   0.296   0.294   0.286   0.287   0.283   0.291   0.294   0.290   0.277   0.278   0.277   0.282   0.279   0.282   0.297   0.275   0.284   0.277   0.282   0.283   0.287   0.296   0.291   0.293   0.291   0.279   0.283   0.283   0.288   0.275   0.277   0.278   0.281   0.280   0.279   0.274   0.268   0.281   0.283   0.279   0.282   0.297   0.279   0.282   0.284   0.272   0.289   0.283   0.284   0.286   0.292   0.285   0.282   0.290   0.286   0.285   0.281   0.292   0.292   0.297   0.287   0.289   0.295   0.289   0.281   0.285   0.288   0.274   0.281   0.277   0.278   0.284   0.278   0.282   0.288   0.278   0.290   0.284   0.289   0.292   0.290   0.286   0.284   0.284   0.283   0.280   0.282   0.288   0.296   0.290   0.299   0.301   0.301   0.303   0.298   0.307   0.291   0.302   0.306   0.294   0.274   0.274   0.288   0.275   0.286   0.287   0.287   0.290   0.284   0.281   0.275   0.287   0.291   0.291   0.286   0.277   0.268   0.279   0.274   0.285   0.276   0.271   0.288   0.289   0.285   0.282   0.297   0.294   0.284   0.291   0.282   0.272   0.275   0.278   0.287   0.283   0.290   0.281   0.272   0.283   0.290   0.293   0.285   0.294   0.283   0.287   0.288   0.292   0.293   0.283   0.289   0.272   0.271   0.288   0.289   0.284   0.281   0.280   0.281   0.280   0.291   0.283   0.276   0.285   0.284   0.286   0.291   0.289   0.285   0.291   0.280   0.272   0.271   0.275   0.276   0.285   0.289   0.279   0.286   0.272   0.274   0.279   0.288   0.284   0.284   0.287   0.286   0.288   0.300   0.293   0.292
    66.10    0.290   0.286   0.295   0.287   0.290   0.285   0.294   0.297   0.292   0.280   0.276   0.290   0.279   0.275   0.279   0.285   0.286   0.287   0.284   0.283   0.284   0.287   0.294   0.289   0.286   0.299   0.289   0.290   0.288   0.277   0.282   0.284   0.282   0.281   0.280   0.290   0.288   0.281   0.286   0.284   0.275   0.282   0.279   0.287   0.282   0.279   0.274   0.274   0.283   0.274   0.279   0.298   0.285   0.295   0.285   0.296   0.288   0.288   0.278   0.287   0.294   0.291   0.295   0.307   0.293   0.294   0.289   0.287   0.289   0.276   0.275   0.275   0.282   0.289   0.295   0.299   0.295   0.286   0.297   0.298   0.296   0.292   0.287   0.279   0.288   0.280   0.286   0.283   0.283   0.292   0.299   0.287   0.292   0.300   0.305   0.295   0.293   0.298   0.303   0.309   0.293   0.295   0.275   0.283   0.283   0.282   0.282   0.288   0.296   0.290   0.284   0.281   0.274   0.280   0.293   0.294   0.282   0.286   0.274   0.282   0.270   0.284   0.275   0.279   0.277   0.286   0.271   0.275   0.285   0.289   0.290   0.290   0.288   0.280   0.285   0.287   0.285   0.285   0.282   0.278   0.274   0.289   0.281   0.277   0.279   0.276   0.280   0.282   0.282   0.283   0.285   0.278   0.278   0.271   0.272   0.280   0.274   0.278   0.272   0.275   0.279   0.281   0.290   0.290   0.284   0.287   0.279   0.284   0.288   0.286   0.280   0.287   0.284   0.276   0.273   0.271   0.288   0.292   0.285   0.283   0.284   0.284   0.278   0.277   0.297   0.301   0.290   0.289   0.282   0.282   0.289   0.293   0.299
    56.80    0.290   0.296   0.298   0.287   0.292   0.297   0.292   0.297   0.290   0.285   0.276   0.282   0.283   0.291   0.276   0.282   0.291   0.281   0.277   0.280   0.296   0.293   0.292   0.288   0.290   0.297   0.290   0.298   0.292   0.287   0.282   0.291   0.283   0.276   0.284   0.285   0.281   0.282   0.282   0.289   0.281   0.292   0.280   0.278   0.276   0.275   0.284   0.279   0.285   0.282   0.281   0.295   0.295   0.293   0.284   0.286   0.294   0.297   0.284   0.278   0.282   0.281   0.289   0.303   0.291   0.293   0.281   0.282   0.280   0.289   0.283   0.287   0.292   0.302   0.293   0.292   0.285   0.287   0.289   0.286   0.291   0.281   0.282   0.280   0.278   0.289   0.294   0.291   0.293   0.299   0.297   0.289   0.289   0.295   0.299   0.296   0.290   0.286   0.294   0.295   0.290   0.289   0.289   0.289   0.282   0.279   0.282   0.284   0.295   0.291   0.287   0.288   0.282   0.298   0.295   0.285   0.291   0.285   0.272   0.274   0.271   0.282   0.289   0.287   0.279   0.283   0.280   0.285   0.285   0.285   0.283   0.279   0.289   0.285   0.287   0.297   0.287   0.278   0.270   0.286   0.299   0.291   0.277   0.277   0.286   0.277   0.286   0.283   0.292   0.287   0.288   0.278   0.274   0.274   0.272   0.281   0.269   0.273   0.274   0.281   0.282   0.282   0.277   0.279   0.278   0.283   0.287   0.287   0.286   0.279   0.286   0.277   0.280   0.275   0.276   0.275   0.279   0.291   0.287   0.281   0.282   0.288   0.276   0.281   0.284   0.295   0.291   0.287   0.282   0.288   0.288   0.298   0.296
    47.50    0.291   0.293   0.307   0.298   0.302   0.301   0.287   0.289   0.292   0.294   0.280   0.282   0.282   0.280   0.290   0.290   0.288   0.281   0.275   0.288   0.291   0.292   0.282   0.292   0.291   0.301   0.296   0.289   0.293   0.288   0.286   0.295   0.293   0.280   0.282   0.282   0.283   0.283   0.297   0.287   0.280   0.288   0.283   0.284   0.280   0.279   0.282   0.285   0.279   0.290   0.283   0.292   0.293   0.292   0.274   0.280   0.289   0.283   0.281   0.274   0.288   0.285   0.295   0.286   0.287   0.290   0.293   0.285   0.290   0.288   0.286   0.282   0.282   0.291   0.286   0.281   0.277   0.283   0.281   0.277   0.283   0.280   0.282   0.287   0.281   0.285   0.285   0.287   0.295   0.300   0.287   0.295   0.295   0.289   0.286   0.297   0.295   0.291   0.287   0.280   0.286   0.276   0.281   0.274   0.282   0.275   0.282   0.286   0.296   0.301   0.296   0.292   0.284   0.290   0.277   0.287   0.285   0.288   0.285   0.287   0.284   0.290   0.299   0.291   0.288   0.277   0.289   0.291   0.289   0.291   0.282   0.281   0.287   0.290   0.294   0.300   0.297   0.287   0.279   0.283   0.286   0.282   0.279   0.281   0.286   0.281   0.280   0.283   0.283   0.290   0.288   0.276   0.278   0.284   0.273   0.275   0.276   0.268   0.277   0.277   0.282   0.283   0.281   0.277   0.276   0.278   0.274   0.285   0.275   0.283   0.285   0.278   0.277   0.279   0.277   0.279   0.275   0.283   0.284   0.293   0.286   0.290   0.298   0.286   0.293   0.293   0.293   0.284   0.282   0.288   0.286   0.300   0.292
    38.20    0.285   0.294   0.299   0.294   0.298   0.294   0.291   0.305   0.299   0.292   0.283   0.272   0.288   0.284   0.286   0.293   0.286   0.285   0.279   0.289   0.289   0.282   0.285   0.296   0.290   0.297   0.293   0.286   0.290   0.288   0.292   0.288   0.292   0.285   0.288   0.284   0.282   0.280   0.287   0.296   0.302   0.298   0.297   0.286   0.282   0.283   0.284   0.284   0.279   0.278   0.293   0.296   0.287   0.289   0.278   0.274   0.280   0.280   0.276   0.275   0.280   0.295   0.290   0.292   0.293   0.286   0.292   0.288   0.275   0.282   0.283   0.274   0.277   0.285   0.292   0.293   0.282   0.284   0.277   0.273   0.282   0.290   0.284   0.290   0.283   0.286   0.284   0.288   0.289   0.289   0.285   0.280   0.288   0.292   0.290   0.292   0.301   0.292   0.286   0.280   0.276   0.277   0.281   0.278   0.286   0.290   0.281   0.287   0.279   0.301   0.289   0.286   0.286   0.279   0.273   0.283   0.288   0.290   0.296   0.288   0.289   0.286   0.286   0.282   0.285   0.285   0.292   0.290   0.284   0.275   0.287   0.290   0.292   0.292   0.287   0.287   0.300   0.293   0.280   0.272   0.281   0.284   0.285   0.285   0.281   0.274   0.279   0.285   0.284   0.288   0.284   0.286   0.279   0.284   0.284   0.274   0.273   0.270   0.273   0.283   0.274   0.275   0.284   0.280   0.277   0.279   0.276   0.281   0.278   0.267   0.275   0.275   0.269   0.272   0.275   0.276   0.269   0.274   0.284   0.290   0.301   0.290   0.286   0.290   0.291   0.295   0.295   0.303   0.302   0.286   0.300   0.301   0.302
    28.90    0.286   0.291   0.289   0.286   0.299   0.291   0.297   0.300   0.298   0.293   0.291   0.282   0.288   0.285   0.281   0.289   0.288   0.279   0.285   0.292   0.292   0.291   0.294   0.295   0.296   0.291   0.297   0.296   0.289   0.286   0.289   0.296   0.295   0.298   0.291   0.285   0.279   0.285   0.296   0.298   0.296   0.292   0.303   0.300   0.297   0.283   0.284   0.279   0.285   0.293   0.293   0.284   0.284   0.282   0.283   0.290   0.291   0.293   0.288   0.281   0.288   0.290   0.290   0.295   0.298   0.284   0.287   0.288   0.283   0.278   0.285   0.282   0.284   0.287   0.295   0.281   0.282   0.279   0.278   0.282   0.279   0.293   0.291   0.291   0.277   0.277   0.279   0.286   0.285   0.286   0.287   0.287   0.287   0.296   0.288   0.290   0.296   0.298   0.291   0.275   0.282   0.284   0.290   0.280   0.289   0.291   0.293   0.298   0.294   0.283   0.286   0.281   0.282   0.286   0.268   0.284   0.286   0.293   0.296   0.285   0.286   0.289   0.278   0.285   0.289   0.291   0.286   0.280   0.280   0.279   0.296   0.291   0.298   0.293   0.285   0.290   0.288   0.275   0.266   0.275   0.271   0.281   0.285   0.290   0.286   0.287   0.278   0.281   0.285   0.288   0.289   0.288   0.280   0.284   0.297   0.283   0.288   0.287   0.280   0.288   0.281   0.285   0.282   0.292   0.289   0.274   0.273   0.277   0.274   0.269   0.273   0.277   0.274   0.275   0.278   0.277   0.277   0.281   0.290   0.290   0.291   0.292   0.292   0.283   0.289   0.298   0.301   0.300   0.303   0.293   0.293   0.295   0.301
    19.60    0.290   0.290   0.289   0.287   0.280   0.288   0.297   0.302   0.304   0.294   0.294   0.288   0.285   0.291   0.272   0.288   0.292   0.287   0.281   0.289   0.291   0.290   0.299   0.303   0.294   0.290   0.285   0.295   0.300   0.293   0.296   0.295   0.302   0.302   0.292   0.287   0.278   0.292   0.301   0.298   0.289   0.294   0.300   0.301   0.294   0.279   0.279   0.279   0.279   0.290   0.281   0.290   0.291   0.280   0.288   0.288   0.297   0.302   0.287   0.288   0.292   0.289   0.292   0.289   0.293   0.295   0.287   0.290   0.282   0.283   0.288   0.289   0.282   0.294   0.289   0.289   0.289   0.281   0.285   0.287   0.283   0.297   0.297   0.284   0.288   0.283   0.285   0.286   0.285   0.281   0.278   0.284   0.284   0.292   0.285   0.296   0.290   0.288   0.275   0.283   0.282   0.283   0.288   0.293   0.285   0.291   0.294   0.297   0.292   0.286   0.275   0.281   0.290   0.282   0.282   0.279   0.288   0.286   0.290   0.291   0.294   0.292   0.294   0.288   0.284   0.286   0.291   0.290   0.295   0.282   0.292   0.284   0.292   0.296   0.285   0.281   0.283   0.277   0.270   0.278   0.277   0.294   0.284   0.288   0.289   0.286   0.278   0.289   0.286   0.283   0.278   0.280   0.282   0.286   0.279   0.278   0.286   0.281   0.289   0.286   0.287   0.282   0.294   0.288   0.279   0.273   0.278   0.277   0.270   0.269   0.277   0.275   0.272   0.271   0.281   0.277   0.281   0.289   0.288   0.289   0.289   0.288   0.283   0.291   0.290   0.298   0.288   0.289   0.295   0.288   0.285   0.292   0.291
    10.30    0.274   0.291   0.293   0.292   0.295   0.291   0.293   0.306   0.308   0.303   0.289   0.287   0.285   0.289   0.291   0.277   0.284   0.276   0.280   0.296   0.290   0.285   0.286   0.292   0.299   0.299   0.292   0.295   0.303   0.297   0.291   0.292   0.297   0.292   0.294   0.289   0.288   0.299   0.295   0.297   0.302   0.297   0.300   0.296   0.289   0.293   0.284   0.284   0.281   0.283   0.290   0.287   0.283   0.282   0.284   0.295   0.295   0.286   0.297   0.289   0.293   0.291   0.282   0.291   0.308   0.295   0.280   0.287   0.286   0.281   0.282   0.275   0.278   0.283   0.283   0.280   0.279   0.279   0.281   0.287   0.290   0.296   0.296   0.288   0.299   0.290   0.283   0.279   0.285   0.278   0.275   0.285   0.295   0.300   0.299   0.300   0.293   0.293   0.287   0.285   0.275   0.286   0.290   0.286   0.285   0.286   0.302   0.307   0.300   0.296   0.293   0.283   0.278   0.284   0.276   0.281   0.284   0.275   0.278   0.283   0.288   0.301   0.301   0.293   0.290   0.290   0.299   0.290   0.287   0.288   0.289   0.292   0.291   0.281   0.282   0.284   0.283   0.284   0.283   0.282   0.293   0.280   0.282   0.285   0.279   0.285   0.290   0.281   0.283   0.277   0.275   0.280   0.274   0.285   0.294   0.279   0.283   0.281   0.282   0.292   0.281   0.286   0.292   0.290   0.287   0.289   0.274   0.273   0.275   0.281   0.285   0.276   0.274   0.274   0.286   0.279   0.291   0.284   0.284   0.284   0.278   0.278   0.286   0.285   0.286   0.292   0.294   0.292   0.295   0.295   0.290   0.290   0.289
     1.00    0.284   0.288   0.294   0.289   0.285   0.290   0.295   0.298   0.300   0.298   0.302   0.290   0.287   0.290   0.283   0.279   0.284   0.288   0.296   0.296   0.287   0.284   0.285   0.295   0.305   0.295   0.293   0.300   0.299   0.307   0.293   0.291   0.287   0.284   0.294   0.296   0.290   0.294   0.296   0.293   0.304   0.294   0.298   0.294   0.293   0.298   0.289   0.283   0.282   0.283   0.284   0.288   0.287   0.286   0.299   0.299   0.297   0.294   0.301   0.292   0.289   0.288   0.285   0.293   0.299   0.291   0.286   0.283   0.279   0.277   0.280   0.277   0.278   0.279   0.285   0.280   0.285   0.288   0.276   0.282   0.285   0.277   0.292   0.293   0.297   0.290   0.285   0.273   0.269   0.283   0.277   0.287   0.285   0.292   0.292   0.299   0.281   0.277   0.287   0.282   0.274   0.278   0.282   0.292   0.277   0.287   0.302   0.302   0.298   0.291   0.304   0.286   0.285   0.288   0.287   0.285   0.284   0.288   0.285   0.292   0.285   0.291   0.301   0.295   0.296   0.287   0.294   0.284   0.288   0.295   0.281   0.288   0.286   0.291   0.279   0.286   0.275   0.280   0.281   0.274   0.292   0.285   0.286   0.284   0.278   0.282   0.288   0.285   0.279   0.277   0.282   0.279   0.272   0.283   0.287   0.277   0.270   0.278   0.275   0.279   0.274   0.283   0.281   0.284   0.283   0.288   0.270   0.273   0.278   0.282   0.289   0.282   0.273   0.276   0.285   0.278   0.282   0.280   0.275   0.279   0.273   0.281   0.281   0.279   0.283   0.285   0.299   0.296   0.291   0.289   0.291   0.290   0.293

   Mean standard deviation across all grid points:
      u component:    0.586 m/s
      v component:    0.462 m/s
      w component:    0.285 m/s


U-component (X) statistics from the interpolated hub point:

   Mean =   9.7063 m/s
   TI   =   5.7612 %


Processing complete.  2.11666E+05 CPU seconds used.
