
This summary file was generated by TurbSim (from OpenFAST-v3.5.3) on 19-Apr-2025 at 21:24:49.


Runtime Options:

**********  Random seed #1
    RANLUX  Type of random number generator
         F  Output binary HH turbulence parameters?
         F  Output formatted turbulence parameters?
         F  Output AeroDyn HH files?
         T  Output AeroDyn FF files?
         F  Output BLADED FF files?
         F  Output tower data?
         F  Output HAWC FF files?
         F  Output formatted FF files?
         T  Output coherent turbulence time step file?
 0 -  NONE  IEC turbulence models scaled to exact specified standard deviation


Turbine/Model Specifications:

        39  Vertical grid-point matrix dimension
       193  Horizontal grid-point matrix dimension
     0.250  Time step [seconds]
   900.000  Analysis time [seconds]
   900.000  Usable output time [seconds]
   177.700  Hub height [m]
   353.400  Grid height [m]
  1785.600  Grid width [m]
     0.000  Vertical flow angle [degrees]
     0.000  Horizontal flow angle [degrees]


Meteorological Boundary Conditions:

    IECKAI  IEC Kaimal spectral model
         1  IEC standard: IEC 61400-1 Ed. 3: 2005
     5.000  Percent turbulence intensity, IEC 61400-1 Ed. 3: 2005
       NTM  IEC Normal Turbulence Model
       N/A  IEC Extreme Turbulence Model (ETM) "c" parameter [m/s]
       USR  Wind profile type
    90.000  Reference height [m]
       N/A  Reference wind speed [m/s]
       N/A  Jet height [m]
       N/A  Power law exponent
     0.030  Surface roughness length [m]


Non-IEC Meteorological Boundary Conditions:

       N/A  Site latitude [degrees]
       N/A  Gradient Richardson number
       N/A  Friction or shear velocity [m/s]
       N/A  Mixing layer depth [m]
       N/A  Mean hub u'w' Reynolds stress
       N/A  Mean hub u'v' Reynolds stress
       N/A  Mean hub v'w' Reynolds stress


Spatial Coherence Models:

       IEC  u-component coherence model
       IEC  v-component coherence model
       IEC  w-component coherence model
(   12.000, 0.353E-03)  u-component coherence parameters
(   12.000, 0.353E-03)  v-component coherence parameters
(   12.000, 0.353E-03)  w-component coherence parameters
       N/A  Coherence exponent


User-Defined Profiles:

  Height   Wind Speed   Horizontal Angle
   (m)        (m/s)          (deg)      
  ------   ----------   ----------------
  353.40      10.00         318.19
  334.80      10.00         321.14
  316.20      10.00         324.10
  297.60      10.00         327.05
  279.00      10.00         330.00
  260.40      10.00         332.95
  241.80      10.00         335.90
  223.20      10.00         338.86
  204.60      10.00         341.81
  186.00      10.00         344.76
  167.40      10.00         347.71
  148.80      10.00         350.67
  130.20      10.00         353.62
  111.60      10.00         356.57
   93.00      10.00         359.52
   74.40      10.00           2.48
   55.80      10.00           5.43
   37.20      10.00           8.38
   18.60      10.00          11.33
    0.00      10.00          14.29


You have requested that the following file(s) be generated:

   /kfs3/scratch/agupta/Projects/RL_Incubator/FinalRuns_Veer/Seed4/./FFSim_Seed4/Cond00_v10.0_PL0.12_TI5.0/Seed_3/Low.bts (AeroDyn/TurbSim full-field wind file)


Turbulence Simulation Scaling Parameter Summary:

   Turbulence model used                            =  IEC Kaimal
   Turbulence characteristic                        =  User-specified
   IEC standard                                     =  IEC 61400-1 Ed. 3: 2005
   Mean wind speed at hub height                    =   10.000 m/s
   Characteristic value of standard deviation       =    0.500 m/s
   Turbulence scale                                 =   42.000 m
   u-component integral scale                       =  340.200 m
   Coherency scale                                  =  340.200 m
   Characteristic value of hub turbulence intensity =    5.000%
   Gradient Richardson number                       =    0.000

   Wind profile type                                =  Linear interpolation of user-defined profile
   Equivalent power law exponent (upper rotor disk) =    0.000
   Mean shear across rotor disk                     =    0.000 (m/s)/m
   Assumed rotor diameter                           =  353.400 m
   Surface roughness length                         =    0.030 m

   Nyquist frequency of turbulent wind field        =    2.000 Hz

   Number of time steps in the FFT                  =     3600
   Number of time steps output                      =     3600
   Number of points simulated                       =     7527


Mean Flow Angles:

   Vertical   =   0.0 degrees
   Horizontal =   0.0 degrees

Mean Wind Speed Profile:

   Height    Wind Speed   Horizontal Angle  Vertical Angle  U-comp (X)   V-comp (Y)   W-comp (Z)
     (m)        (m/s)         (degrees)       (degrees)       (m/s)        (m/s)        (m/s)   
   ------    ----------   ----------------  --------------  ----------   ----------   ----------
    354.4       10.00          318.19            0.00          7.45        -6.67         0.00
    345.1       10.00          319.51            0.00          7.60        -6.49         0.00
    335.8       10.00          320.98            0.00          7.77        -6.30         0.00
    326.5       10.00          322.46            0.00          7.93        -6.09         0.00
    317.2       10.00          323.94            0.00          8.08        -5.89         0.00
    307.9       10.00          325.41            0.00          8.23        -5.68         0.00
    298.6       10.00          326.89            0.00          8.38        -5.46         0.00
    289.3       10.00          328.37            0.00          8.51        -5.25         0.00
    280.0       10.00          329.84            0.00          8.65        -5.02         0.00
    270.7       10.00          331.32            0.00          8.77        -4.80         0.00
    261.4       10.00          332.79            0.00          8.89        -4.57         0.00
    252.1       10.00          334.27            0.00          9.01        -4.34         0.00
    242.8       10.00          335.75            0.00          9.12        -4.11         0.00
    233.5       10.00          337.22            0.00          9.22        -3.87         0.00
    224.2       10.00          338.70            0.00          9.32        -3.63         0.00
    214.9       10.00          340.17            0.00          9.41        -3.39         0.00
    205.6       10.00          341.65            0.00          9.49        -3.15         0.00
    196.3       10.00          343.13            0.00          9.57        -2.90         0.00
    187.0       10.00          344.60            0.00          9.64        -2.66         0.00
    177.7       10.00          346.08            0.00          9.71        -2.41         0.00
    168.4       10.00          347.56            0.00          9.77        -2.15         0.00
    159.1       10.00          349.03            0.00          9.82        -1.90         0.00
    149.8       10.00          350.51            0.00          9.86        -1.65         0.00
    140.5       10.00          351.98            0.00          9.90        -1.39         0.00
    131.2       10.00          353.46            0.00          9.93        -1.14         0.00
    121.9       10.00          354.94            0.00          9.96        -0.88         0.00
    112.6       10.00          356.41            0.00          9.98        -0.63         0.00
    103.3       10.00          357.89            0.00          9.99        -0.37         0.00
     94.0       10.00          359.37            0.00         10.00        -0.11         0.00
     84.7       10.00          360.84            0.00         10.00         0.15         0.00
     75.4       10.00          362.32            0.00          9.99         0.40         0.00
     66.1       10.00            3.79            0.00          9.98         0.66         0.00
     56.8       10.00            5.27            0.00          9.96         0.92         0.00
     47.5       10.00            6.75            0.00          9.93         1.17         0.00
     38.2       10.00            8.22            0.00          9.90         1.43         0.00
     28.9       10.00            9.70            0.00          9.86         1.68         0.00
     19.6       10.00           11.17            0.00          9.81         1.94         0.00
     10.3       10.00           12.65            0.00          9.76         2.19         0.00
      1.0       10.00           14.13            0.00          9.70         2.44         0.00


Harvested Random Seeds after Generation of the Random Numbers:

    377667225 K 1
            0 K 2


Hub-Height Simulated Turbulence Statistical Summary:

   Type of Wind        Min (m/s)   Mean (m/s)    Max (m/s)  Sigma (m/s)       TI (%)
   ----------------    ---------   ----------    ---------  -----------       ------
   Longitudinal (u)         8.61        10.00        11.36        0.464        4.643
   Lateral (v)             -1.25        -0.00         1.52        0.380        3.798
   Vertical (w)            -0.93         0.00         0.86        0.242        2.418
   U component              8.39         9.71        11.11        0.466        4.801
   V component             -3.75        -2.41        -0.93        0.378        3.892
   W component             -0.93         0.00         0.86        0.242        2.491
   Horizontal (U&V)         8.61        10.01        11.37        0.464        4.636
   Total                    8.61        10.01        11.37        0.464        4.636

                       Min Reynolds     Mean Reynolds    Max Reynolds    Correlation
   Product             Stress (m/s)^2   Stress (m/s)^2   Stress (m/s)^2  Coefficient
   ----------------    --------------   --------------   --------------  -----------
   u'w'                     -0.659             0.004             0.563         0.035
   u'v'                     -1.069             0.012             0.848         0.069
   v'w'                     -0.581             0.006             0.655         0.070


   Friction Velocity (Ustar)  =      0.062 m/s
   Maximum Instantaneous TKE  =      1.204 (m/s)^2
   Maximum Instantaneous CTKE =      0.534 (m/s)^2


Grid Point Variance Summary:

   Y-coord -892.80 -883.50 -874.20 -864.90 -855.60 -846.30 -837.00 -827.70 -818.40 -809.10 -799.80 -790.50 -781.20 -771.90 -762.60 -753.30 -744.00 -734.70 -725.40 -716.10 -706.80 -697.50 -688.20 -678.90 -669.60 -660.30 -651.00 -641.70 -632.40 -623.10 -613.80 -604.50 -595.20 -585.90 -576.60 -567.30 -558.00 -548.70 -539.40 -530.10 -520.80 -511.50 -502.20 -492.90 -483.60 -474.30 -465.00 -455.70 -446.40 -437.10 -427.80 -418.50 -409.20 -399.90 -390.60 -381.30 -372.00 -362.70 -353.40 -344.10 -334.80 -325.50 -316.20 -306.90 -297.60 -288.30 -279.00 -269.70 -260.40 -251.10 -241.80 -232.50 -223.20 -213.90 -204.60 -195.30 -186.00 -176.70 -167.40 -158.10 -148.80 -139.50 -130.20 -120.90 -111.60 -102.30  -93.00  -83.70  -74.40  -65.10  -55.80  -46.50  -37.20  -27.90  -18.60   -9.30    0.00    9.30   18.60   27.90   37.20   46.50   55.80   65.10   74.40   83.70   93.00  102.30  111.60  120.90  130.20  139.50  148.80  158.10  167.40  176.70  186.00  195.30  204.60  213.90  223.20  232.50  241.80  251.10  260.40  269.70  279.00  288.30  297.60  306.90  316.20  325.50  334.80  344.10  353.40  362.70  372.00  381.30  390.60  399.90  409.20  418.50  427.80  437.10  446.40  455.70  465.00  474.30  483.60  492.90  502.20  511.50  520.80  530.10  539.40  548.70  558.00  567.30  576.60  585.90  595.20  604.50  613.80  623.10  632.40  641.70  651.00  660.30  669.60  678.90  688.20  697.50  706.80  716.10  725.40  734.70  744.00  753.30  762.60  771.90  781.20  790.50  799.80  809.10  818.40  827.70  837.00  846.30  855.60  864.90  874.20  883.50  892.80

   Height   Standard deviation at grid points for the u component:
   354.40    0.502   0.533   0.520   0.538   0.539   0.550   0.557   0.524   0.495   0.465   0.509   0.525   0.541   0.528   0.466   0.503   0.514   0.475   0.440   0.445   0.447   0.452   0.448   0.444   0.461   0.481   0.481   0.461   0.476   0.436   0.460   0.468   0.464   0.463   0.452   0.424   0.473   0.473   0.469   0.514   0.522   0.480   0.496   0.498   0.489   0.489   0.469   0.465   0.475   0.488   0.477   0.475   0.485   0.515   0.540   0.548   0.538   0.504   0.507   0.503   0.474   0.470   0.474   0.472   0.468   0.488   0.505   0.517   0.484   0.522   0.505   0.538   0.521   0.512   0.516   0.512   0.535   0.543   0.530   0.510   0.525   0.527   0.483   0.493   0.471   0.470   0.435   0.420   0.398   0.394   0.415   0.424   0.420   0.423   0.424   0.413   0.449   0.439   0.457   0.505   0.486   0.488   0.496   0.482   0.428   0.427   0.462   0.447   0.440   0.468   0.479   0.490   0.473   0.477   0.479   0.504   0.531   0.511   0.528   0.510   0.517   0.555   0.537   0.499   0.532   0.526   0.480   0.490   0.494   0.469   0.515   0.538   0.522   0.514   0.510   0.492   0.511   0.490   0.518   0.533   0.524   0.555   0.555   0.541   0.524   0.534   0.551   0.534   0.534   0.542   0.527   0.520   0.529   0.514   0.545   0.523   0.518   0.508   0.521   0.575   0.616   0.666   0.711   0.693   0.650   0.659   0.593   0.610   0.637   0.608   0.612   0.638   0.621   0.632   0.593   0.557   0.560   0.571   0.571   0.545   0.555   0.553   0.556   0.534   0.515   0.548   0.563   0.543   0.515   0.482   0.489   0.521   0.510
   345.10    0.474   0.490   0.537   0.540   0.529   0.552   0.525   0.501   0.474   0.448   0.475   0.513   0.525   0.528   0.489   0.476   0.523   0.512   0.477   0.463   0.461   0.459   0.461   0.447   0.456   0.462   0.470   0.481   0.466   0.444   0.495   0.478   0.507   0.480   0.462   0.437   0.470   0.470   0.493   0.510   0.520   0.493   0.485   0.504   0.496   0.497   0.480   0.490   0.511   0.487   0.483   0.492   0.541   0.526   0.548   0.567   0.538   0.489   0.497   0.502   0.490   0.479   0.461   0.460   0.474   0.477   0.505   0.512   0.518   0.524   0.536   0.539   0.529   0.497   0.499   0.500   0.509   0.536   0.527   0.505   0.510   0.521   0.509   0.508   0.490   0.464   0.460   0.434   0.418   0.436   0.432   0.428   0.436   0.415   0.428   0.427   0.439   0.435   0.450   0.490   0.482   0.502   0.495   0.449   0.429   0.422   0.438   0.478   0.452   0.457   0.443   0.457   0.428   0.461   0.508   0.520   0.518   0.532   0.524   0.498   0.510   0.509   0.484   0.510   0.542   0.508   0.489   0.490   0.470   0.483   0.499   0.521   0.510   0.517   0.543   0.532   0.536   0.534   0.557   0.551   0.533   0.561   0.525   0.530   0.494   0.528   0.554   0.561   0.567   0.537   0.545   0.527   0.546   0.530   0.564   0.565   0.528   0.517   0.564   0.597   0.633   0.683   0.701   0.676   0.664   0.640   0.596   0.613   0.602   0.595   0.630   0.653   0.632   0.658   0.631   0.569   0.533   0.551   0.600   0.560   0.557   0.572   0.523   0.524   0.550   0.521   0.521   0.503   0.491   0.469   0.490   0.488   0.521
   335.80    0.490   0.486   0.519   0.553   0.519   0.519   0.509   0.524   0.486   0.477   0.505   0.518   0.541   0.524   0.491   0.505   0.504   0.494   0.474   0.479   0.484   0.458   0.450   0.460   0.439   0.421   0.456   0.457   0.467   0.480   0.497   0.492   0.482   0.463   0.434   0.431   0.450   0.454   0.478   0.482   0.474   0.469   0.474   0.503   0.491   0.494   0.524   0.540   0.506   0.509   0.501   0.488   0.518   0.552   0.561   0.565   0.536   0.526   0.501   0.527   0.517   0.494   0.461   0.445   0.463   0.465   0.461   0.532   0.491   0.545   0.516   0.518   0.534   0.505   0.506   0.463   0.494   0.513   0.496   0.497   0.529   0.520   0.511   0.498   0.477   0.469   0.442   0.452   0.436   0.448   0.476   0.432   0.435   0.402   0.417   0.422   0.411   0.446   0.447   0.441   0.484   0.477   0.484   0.468   0.418   0.399   0.424   0.436   0.438   0.434   0.466   0.459   0.469   0.488   0.512   0.501   0.522   0.547   0.520   0.501   0.484   0.501   0.480   0.511   0.494   0.489   0.496   0.472   0.468   0.469   0.492   0.502   0.493   0.509   0.494   0.526   0.521   0.566   0.570   0.534   0.565   0.526   0.500   0.529   0.500   0.519   0.543   0.586   0.563   0.575   0.551   0.532   0.526   0.524   0.512   0.528   0.488   0.530   0.551   0.553   0.619   0.644   0.643   0.663   0.654   0.648   0.631   0.609   0.608   0.595   0.641   0.650   0.624   0.664   0.651   0.625   0.563   0.587   0.581   0.591   0.559   0.571   0.535   0.543   0.573   0.544   0.535   0.490   0.470   0.424   0.457   0.474   0.530
   326.50    0.482   0.494   0.513   0.506   0.508   0.497   0.514   0.510   0.518   0.505   0.525   0.508   0.491   0.528   0.524   0.544   0.540   0.542   0.491   0.499   0.489   0.466   0.441   0.436   0.412   0.402   0.421   0.450   0.448   0.482   0.487   0.496   0.478   0.454   0.444   0.417   0.444   0.445   0.456   0.444   0.465   0.457   0.468   0.488   0.501   0.478   0.501   0.542   0.549   0.512   0.482   0.506   0.484   0.499   0.505   0.555   0.541   0.523   0.505   0.503   0.521   0.508   0.455   0.442   0.476   0.527   0.500   0.524   0.523   0.533   0.525   0.494   0.541   0.542   0.502   0.487   0.509   0.508   0.480   0.483   0.490   0.503   0.487   0.482   0.474   0.442   0.432   0.435   0.448   0.416   0.420   0.424   0.432   0.409   0.412   0.410   0.395   0.429   0.424   0.455   0.481   0.470   0.457   0.448   0.418   0.368   0.431   0.423   0.445   0.468   0.459   0.454   0.491   0.484   0.490   0.493   0.527   0.515   0.499   0.517   0.470   0.494   0.478   0.469   0.497   0.497   0.487   0.478   0.496   0.505   0.476   0.502   0.467   0.495   0.454   0.527   0.523   0.518   0.515   0.529   0.574   0.556   0.547   0.517   0.507   0.523   0.510   0.543   0.596   0.541   0.548   0.538   0.539   0.517   0.555   0.589   0.547   0.534   0.527   0.544   0.558   0.615   0.610   0.611   0.656   0.645   0.634   0.628   0.616   0.628   0.646   0.667   0.655   0.636   0.640   0.612   0.561   0.575   0.554   0.556   0.533   0.518   0.530   0.504   0.523   0.525   0.488   0.455   0.445   0.440   0.444   0.499   0.505
   317.20    0.487   0.519   0.525   0.483   0.475   0.488   0.454   0.459   0.488   0.461   0.483   0.526   0.534   0.542   0.520   0.495   0.524   0.533   0.512   0.493   0.513   0.498   0.480   0.445   0.413   0.431   0.404   0.415   0.439   0.455   0.489   0.449   0.443   0.413   0.407   0.419   0.392   0.423   0.435   0.449   0.433   0.469   0.481   0.517   0.524   0.506   0.496   0.527   0.559   0.523   0.504   0.503   0.481   0.512   0.503   0.528   0.529   0.538   0.481   0.490   0.473   0.466   0.479   0.458   0.481   0.499   0.495   0.523   0.493   0.516   0.508   0.530   0.511   0.545   0.509   0.511   0.503   0.480   0.469   0.471   0.472   0.492   0.479   0.456   0.476   0.437   0.449   0.452   0.436   0.438   0.428   0.403   0.426   0.412   0.422   0.411   0.416   0.449   0.452   0.456   0.485   0.504   0.504   0.460   0.427   0.410   0.448   0.435   0.432   0.448   0.470   0.476   0.481   0.490   0.492   0.459   0.479   0.509   0.505   0.488   0.468   0.470   0.450   0.456   0.485   0.486   0.471   0.485   0.495   0.467   0.469   0.452   0.432   0.448   0.465   0.496   0.475   0.475   0.485   0.491   0.507   0.549   0.570   0.526   0.486   0.506   0.508   0.548   0.581   0.575   0.580   0.564   0.552   0.534   0.505   0.526   0.525   0.528   0.557   0.550   0.578   0.565   0.624   0.645   0.644   0.633   0.668   0.629   0.623   0.604   0.616   0.660   0.619   0.652   0.644   0.605   0.587   0.563   0.533   0.535   0.516   0.522   0.540   0.517   0.502   0.463   0.477   0.429   0.421   0.457   0.449   0.469   0.529
   307.90    0.492   0.498   0.532   0.511   0.515   0.497   0.456   0.480   0.466   0.478   0.507   0.521   0.533   0.526   0.498   0.492   0.513   0.528   0.530   0.497   0.490   0.474   0.479   0.441   0.437   0.412   0.388   0.411   0.425   0.447   0.475   0.478   0.433   0.427   0.404   0.408   0.408   0.419   0.466   0.481   0.480   0.503   0.481   0.505   0.480   0.470   0.501   0.549   0.554   0.546   0.489   0.480   0.478   0.497   0.495   0.521   0.517   0.507   0.486   0.477   0.454   0.466   0.478   0.486   0.450   0.496   0.531   0.527   0.528   0.500   0.499   0.520   0.515   0.496   0.522   0.477   0.485   0.446   0.448   0.473   0.464   0.447   0.449   0.456   0.458   0.458   0.411   0.438   0.431   0.419   0.403   0.421   0.422   0.403   0.432   0.442   0.444   0.454   0.465   0.487   0.470   0.470   0.486   0.467   0.450   0.407   0.435   0.453   0.444   0.473   0.452   0.470   0.436   0.461   0.468   0.468   0.460   0.455   0.498   0.460   0.472   0.464   0.483   0.491   0.473   0.514   0.482   0.450   0.460   0.441   0.461   0.449   0.385   0.422   0.447   0.478   0.450   0.481   0.482   0.493   0.527   0.537   0.533   0.501   0.475   0.493   0.551   0.560   0.577   0.572   0.573   0.569   0.564   0.556   0.500   0.496   0.503   0.541   0.542   0.551   0.539   0.569   0.611   0.591   0.612   0.605   0.655   0.657   0.655   0.619   0.601   0.624   0.649   0.638   0.635   0.598   0.571   0.546   0.532   0.505   0.524   0.516   0.507   0.474   0.474   0.463   0.440   0.459   0.448   0.457   0.449   0.444   0.479
   298.60    0.492   0.484   0.496   0.518   0.521   0.493   0.447   0.450   0.442   0.470   0.488   0.514   0.503   0.500   0.490   0.489   0.515   0.520   0.515   0.528   0.513   0.472   0.440   0.467   0.429   0.441   0.398   0.440   0.430   0.447   0.440   0.463   0.423   0.410   0.390   0.407   0.437   0.457   0.479   0.493   0.508   0.492   0.505   0.489   0.444   0.424   0.464   0.485   0.524   0.527   0.500   0.481   0.454   0.480   0.490   0.472   0.476   0.500   0.492   0.481   0.451   0.462   0.493   0.456   0.498   0.488   0.496   0.510   0.495   0.510   0.522   0.498   0.503   0.479   0.460   0.493   0.447   0.450   0.454   0.443   0.429   0.415   0.416   0.441   0.439   0.435   0.441   0.445   0.433   0.388   0.397   0.419   0.412   0.449   0.449   0.437   0.445   0.449   0.454   0.462   0.457   0.480   0.502   0.516   0.471   0.469   0.472   0.469   0.441   0.456   0.453   0.451   0.439   0.457   0.453   0.471   0.459   0.438   0.466   0.447   0.456   0.476   0.469   0.478   0.479   0.476   0.462   0.444   0.446   0.442   0.449   0.409   0.381   0.427   0.460   0.524   0.446   0.474   0.494   0.475   0.513   0.534   0.503   0.440   0.464   0.518   0.551   0.549   0.555   0.578   0.552   0.533   0.550   0.552   0.484   0.484   0.496   0.525   0.513   0.540   0.520   0.556   0.584   0.567   0.563   0.585   0.620   0.634   0.643   0.615   0.626   0.638   0.622   0.603   0.615   0.596   0.609   0.587   0.524   0.495   0.515   0.510   0.480   0.449   0.440   0.438   0.473   0.447   0.456   0.454   0.466   0.482   0.477
   289.30    0.484   0.469   0.501   0.494   0.509   0.489   0.470   0.465   0.448   0.478   0.460   0.472   0.492   0.481   0.472   0.464   0.516   0.524   0.496   0.518   0.493   0.493   0.466   0.440   0.427   0.431   0.407   0.420   0.438   0.448   0.482   0.457   0.430   0.429   0.415   0.423   0.424   0.479   0.461   0.489   0.514   0.539   0.506   0.504   0.482   0.464   0.434   0.476   0.510   0.508   0.502   0.447   0.447   0.475   0.485   0.458   0.459   0.470   0.455   0.463   0.453   0.466   0.471   0.458   0.459   0.475   0.482   0.496   0.487   0.512   0.504   0.486   0.489   0.455   0.459   0.451   0.428   0.426   0.416   0.407   0.402   0.406   0.414   0.425   0.418   0.443   0.472   0.457   0.448   0.415   0.410   0.408   0.423   0.450   0.434   0.431   0.398   0.428   0.469   0.484   0.466   0.483   0.519   0.510   0.462   0.493   0.502   0.448   0.436   0.469   0.439   0.422   0.420   0.449   0.438   0.467   0.468   0.455   0.442   0.443   0.460   0.455   0.468   0.463   0.455   0.441   0.446   0.437   0.436   0.415   0.428   0.396   0.405   0.459   0.521   0.489   0.487   0.486   0.486   0.474   0.505   0.512   0.503   0.461   0.488   0.516   0.526   0.537   0.500   0.529   0.509   0.490   0.528   0.502   0.478   0.439   0.478   0.493   0.534   0.557   0.573   0.585   0.594   0.600   0.556   0.588   0.627   0.627   0.610   0.622   0.580   0.590   0.613   0.584   0.571   0.582   0.577   0.585   0.518   0.505   0.559   0.581   0.537   0.491   0.483   0.459   0.451   0.441   0.447   0.444   0.480   0.498   0.458
   280.00    0.498   0.484   0.463   0.523   0.510   0.493   0.482   0.457   0.427   0.445   0.466   0.478   0.526   0.489   0.489   0.499   0.534   0.538   0.516   0.512   0.492   0.488   0.445   0.450   0.432   0.409   0.397   0.398   0.417   0.447   0.479   0.465   0.455   0.447   0.423   0.452   0.478   0.486   0.487   0.490   0.504   0.523   0.500   0.480   0.506   0.482   0.478   0.504   0.484   0.519   0.506   0.466   0.444   0.482   0.478   0.447   0.453   0.454   0.445   0.443   0.469   0.458   0.437   0.457   0.438   0.482   0.472   0.496   0.472   0.471   0.476   0.487   0.484   0.464   0.435   0.436   0.454   0.426   0.408   0.378   0.383   0.402   0.382   0.404   0.428   0.434   0.466   0.481   0.444   0.437   0.408   0.414   0.412   0.420   0.433   0.450   0.403   0.434   0.452   0.476   0.484   0.493   0.493   0.495   0.490   0.495   0.463   0.466   0.427   0.437   0.455   0.458   0.454   0.455   0.434   0.444   0.441   0.455   0.458   0.419   0.460   0.450   0.494   0.481   0.452   0.428   0.430   0.426   0.404   0.432   0.453   0.413   0.416   0.458   0.521   0.520   0.497   0.498   0.490   0.486   0.505   0.495   0.486   0.483   0.482   0.514   0.536   0.548   0.555   0.515   0.516   0.494   0.514   0.505   0.517   0.470   0.504   0.528   0.548   0.554   0.609   0.590   0.563   0.567   0.569   0.606   0.584   0.637   0.676   0.600   0.615   0.594   0.608   0.547   0.543   0.540   0.558   0.555   0.533   0.567   0.558   0.554   0.511   0.528   0.480   0.477   0.463   0.486   0.479   0.463   0.485   0.500   0.477
   270.70    0.495   0.512   0.484   0.516   0.518   0.493   0.476   0.477   0.479   0.447   0.433   0.469   0.495   0.524   0.492   0.520   0.520   0.520   0.525   0.500   0.500   0.501   0.440   0.426   0.443   0.428   0.426   0.409   0.442   0.482   0.499   0.490   0.461   0.472   0.473   0.480   0.514   0.515   0.481   0.492   0.488   0.503   0.532   0.499   0.492   0.468   0.484   0.495   0.475   0.469   0.495   0.467   0.455   0.474   0.452   0.457   0.459   0.456   0.450   0.442   0.434   0.459   0.451   0.449   0.462   0.459   0.447   0.488   0.469   0.445   0.462   0.469   0.449   0.453   0.407   0.411   0.415   0.443   0.414   0.365   0.391   0.426   0.409   0.402   0.437   0.480   0.459   0.459   0.451   0.453   0.440   0.390   0.434   0.440   0.427   0.439   0.418   0.432   0.452   0.470   0.506   0.487   0.472   0.464   0.465   0.442   0.464   0.458   0.459   0.435   0.432   0.431   0.435   0.417   0.440   0.419   0.425   0.426   0.450   0.448   0.460   0.453   0.480   0.472   0.442   0.431   0.438   0.400   0.429   0.429   0.430   0.457   0.472   0.443   0.510   0.529   0.523   0.511   0.488   0.492   0.500   0.507   0.500   0.511   0.470   0.511   0.515   0.526   0.530   0.489   0.488   0.499   0.514   0.499   0.533   0.537   0.517   0.564   0.563   0.609   0.617   0.603   0.589   0.556   0.553   0.575   0.606   0.632   0.655   0.670   0.632   0.607   0.602   0.578   0.535   0.519   0.533   0.578   0.552   0.546   0.546   0.518   0.535   0.514   0.498   0.463   0.454   0.482   0.497   0.509   0.499   0.487   0.493
   261.40    0.501   0.476   0.474   0.514   0.523   0.540   0.505   0.514   0.507   0.454   0.467   0.477   0.512   0.488   0.487   0.513   0.512   0.506   0.505   0.497   0.493   0.478   0.450   0.415   0.422   0.439   0.437   0.433   0.434   0.473   0.484   0.487   0.480   0.477   0.515   0.505   0.470   0.492   0.508   0.469   0.463   0.497   0.498   0.473   0.482   0.479   0.485   0.458   0.458   0.462   0.446   0.428   0.442   0.454   0.455   0.487   0.443   0.424   0.467   0.469   0.442   0.463   0.467   0.451   0.464   0.430   0.445   0.480   0.490   0.477   0.453   0.449   0.447   0.454   0.428   0.403   0.404   0.414   0.395   0.382   0.413   0.425   0.440   0.414   0.466   0.474   0.473   0.486   0.475   0.448   0.448   0.439   0.397   0.460   0.427   0.460   0.442   0.463   0.455   0.504   0.519   0.497   0.503   0.447   0.453   0.448   0.413   0.425   0.416   0.438   0.435   0.460   0.447   0.386   0.421   0.446   0.418   0.432   0.428   0.450   0.465   0.460   0.448   0.442   0.434   0.430   0.405   0.433   0.411   0.458   0.465   0.451   0.439   0.464   0.477   0.523   0.519   0.522   0.499   0.487   0.486   0.463   0.489   0.496   0.502   0.505   0.466   0.521   0.514   0.498   0.476   0.506   0.529   0.530   0.510   0.538   0.559   0.536   0.542   0.581   0.597   0.592   0.554   0.544   0.566   0.610   0.591   0.648   0.623   0.637   0.648   0.628   0.630   0.582   0.565   0.568   0.578   0.590   0.575   0.544   0.576   0.542   0.535   0.563   0.519   0.498   0.460   0.482   0.508   0.495   0.480   0.490   0.501
   252.10    0.460   0.485   0.488   0.548   0.580   0.565   0.537   0.525   0.505   0.476   0.474   0.491   0.489   0.480   0.486   0.504   0.500   0.495   0.471   0.471   0.472   0.461   0.473   0.435   0.421   0.445   0.446   0.439   0.449   0.481   0.477   0.486   0.503   0.480   0.521   0.499   0.496   0.501   0.486   0.480   0.514   0.488   0.466   0.433   0.469   0.476   0.467   0.493   0.454   0.437   0.438   0.442   0.479   0.456   0.465   0.504   0.523   0.461   0.462   0.465   0.460   0.449   0.461   0.457   0.422   0.463   0.475   0.491   0.496   0.480   0.475   0.475   0.450   0.414   0.395   0.383   0.399   0.424   0.400   0.406   0.436   0.440   0.437   0.475   0.459   0.482   0.484   0.467   0.490   0.422   0.432   0.409   0.391   0.417   0.419   0.459   0.454   0.446   0.474   0.505   0.493   0.445   0.451   0.433   0.437   0.444   0.419   0.426   0.413   0.431   0.435   0.443   0.446   0.413   0.445   0.450   0.456   0.447   0.445   0.431   0.448   0.424   0.454   0.452   0.457   0.433   0.408   0.424   0.414   0.434   0.422   0.474   0.458   0.451   0.479   0.490   0.521   0.484   0.459   0.477   0.466   0.469   0.458   0.451   0.498   0.475   0.490   0.489   0.496   0.481   0.478   0.485   0.509   0.511   0.481   0.508   0.519   0.526   0.537   0.571   0.595   0.640   0.592   0.585   0.540   0.557   0.585   0.643   0.657   0.656   0.621   0.607   0.639   0.623   0.597   0.592   0.607   0.586   0.597   0.600   0.560   0.573   0.557   0.552   0.553   0.479   0.468   0.501   0.468   0.473   0.455   0.464   0.494
   242.80    0.491   0.507   0.514   0.538   0.594   0.600   0.614   0.535   0.492   0.492   0.461   0.476   0.459   0.493   0.508   0.492   0.512   0.484   0.470   0.448   0.437   0.452   0.479   0.476   0.463   0.425   0.444   0.429   0.469   0.481   0.465   0.529   0.515   0.508   0.529   0.524   0.493   0.500   0.489   0.491   0.521   0.541   0.527   0.516   0.478   0.475   0.514   0.501   0.451   0.428   0.430   0.441   0.448   0.478   0.470   0.502   0.491   0.474   0.467   0.444   0.431   0.441   0.437   0.432   0.443   0.448   0.469   0.464   0.494   0.462   0.471   0.462   0.429   0.419   0.429   0.412   0.425   0.442   0.422   0.402   0.456   0.458   0.472   0.463   0.458   0.478   0.487   0.473   0.447   0.446   0.411   0.406   0.424   0.433   0.435   0.477   0.448   0.412   0.478   0.504   0.480   0.400   0.430   0.412   0.446   0.472   0.474   0.442   0.415   0.439   0.437   0.438   0.441   0.408   0.444   0.434   0.481   0.490   0.440   0.442   0.421   0.410   0.405   0.438   0.446   0.407   0.388   0.401   0.426   0.460   0.419   0.438   0.422   0.443   0.443   0.468   0.504   0.470   0.475   0.464   0.464   0.469   0.460   0.467   0.504   0.478   0.495   0.481   0.461   0.484   0.457   0.477   0.487   0.462   0.444   0.497   0.503   0.513   0.518   0.571   0.592   0.601   0.585   0.560   0.560   0.596   0.607   0.631   0.656   0.670   0.636   0.621   0.602   0.625   0.584   0.592   0.615   0.603   0.616   0.574   0.564   0.532   0.555   0.544   0.546   0.458   0.489   0.482   0.495   0.460   0.444   0.437   0.473
   233.50    0.558   0.520   0.533   0.559   0.569   0.594   0.578   0.550   0.473   0.448   0.469   0.465   0.490   0.512   0.511   0.483   0.504   0.469   0.449   0.436   0.444   0.450   0.456   0.458   0.462   0.425   0.420   0.464   0.463   0.477   0.487   0.534   0.526   0.520   0.510   0.524   0.524   0.518   0.500   0.531   0.534   0.583   0.552   0.523   0.505   0.512   0.506   0.514   0.445   0.432   0.454   0.418   0.444   0.461   0.465   0.471   0.481   0.478   0.484   0.438   0.419   0.417   0.452   0.422   0.414   0.450   0.440   0.469   0.469   0.465   0.444   0.457   0.432   0.428   0.425   0.453   0.448   0.442   0.426   0.435   0.438   0.451   0.432   0.449   0.452   0.439   0.476   0.463   0.442   0.438   0.429   0.398   0.422   0.450   0.444   0.433   0.439   0.430   0.467   0.482   0.460   0.436   0.411   0.440   0.451   0.459   0.495   0.482   0.455   0.436   0.449   0.463   0.415   0.419   0.419   0.421   0.463   0.452   0.445   0.415   0.435   0.444   0.376   0.402   0.451   0.422   0.402   0.408   0.424   0.446   0.427   0.438   0.464   0.449   0.454   0.465   0.473   0.484   0.468   0.474   0.466   0.475   0.459   0.485   0.480   0.494   0.489   0.509   0.514   0.500   0.466   0.462   0.485   0.440   0.424   0.462   0.448   0.466   0.465   0.517   0.543   0.594   0.536   0.515   0.553   0.638   0.620   0.644   0.649   0.644   0.620   0.606   0.600   0.613   0.620   0.589   0.615   0.618   0.612   0.594   0.564   0.550   0.558   0.542   0.491   0.496   0.495   0.464   0.474   0.476   0.427   0.463   0.468
   224.20    0.581   0.568   0.542   0.551   0.550   0.581   0.552   0.516   0.471   0.467   0.482   0.511   0.501   0.494   0.479   0.488   0.466   0.426   0.439   0.432   0.430   0.446   0.424   0.442   0.433   0.441   0.427   0.432   0.459   0.478   0.514   0.514   0.476   0.477   0.489   0.472   0.499   0.522   0.505   0.535   0.537   0.578   0.560   0.562   0.526   0.513   0.510   0.466   0.448   0.449   0.418   0.437   0.456   0.446   0.457   0.477   0.487   0.484   0.482   0.441   0.427   0.418   0.446   0.460   0.421   0.450   0.463   0.469   0.475   0.496   0.483   0.474   0.462   0.455   0.476   0.465   0.431   0.434   0.448   0.443   0.441   0.421   0.441   0.458   0.438   0.462   0.469   0.451   0.436   0.412   0.433   0.400   0.407   0.469   0.483   0.457   0.458   0.405   0.436   0.473   0.451   0.461   0.453   0.471   0.486   0.465   0.482   0.513   0.486   0.435   0.462   0.445   0.414   0.428   0.451   0.442   0.454   0.434   0.429   0.393   0.427   0.404   0.406   0.412   0.427   0.420   0.378   0.384   0.417   0.439   0.422   0.436   0.460   0.458   0.443   0.447   0.489   0.474   0.452   0.442   0.432   0.432   0.457   0.469   0.493   0.514   0.472   0.476   0.467   0.465   0.476   0.468   0.470   0.443   0.404   0.450   0.430   0.466   0.461   0.494   0.488   0.549   0.561   0.546   0.563   0.609   0.624   0.632   0.606   0.645   0.627   0.624   0.584   0.544   0.568   0.604   0.627   0.619   0.599   0.584   0.557   0.576   0.569   0.564   0.511   0.500   0.519   0.513   0.517   0.457   0.456   0.464   0.468
   214.90    0.573   0.539   0.558   0.572   0.551   0.557   0.549   0.520   0.504   0.448   0.467   0.475   0.474   0.468   0.461   0.460   0.425   0.409   0.412   0.401   0.424   0.440   0.460   0.449   0.410   0.413   0.420   0.449   0.451   0.470   0.480   0.493   0.492   0.477   0.442   0.469   0.503   0.538   0.537   0.525   0.579   0.550   0.552   0.548   0.554   0.511   0.497   0.471   0.493   0.446   0.439   0.442   0.437   0.432   0.466   0.458   0.449   0.459   0.455   0.449   0.439   0.422   0.440   0.459   0.450   0.486   0.445   0.469   0.493   0.497   0.496   0.485   0.484   0.471   0.471   0.483   0.464   0.438   0.453   0.444   0.447   0.437   0.430   0.445   0.437   0.441   0.441   0.448   0.441   0.424   0.429   0.410   0.440   0.466   0.485   0.479   0.475   0.445   0.448   0.441   0.451   0.473   0.467   0.469   0.464   0.454   0.477   0.466   0.482   0.486   0.446   0.442   0.455   0.436   0.470   0.442   0.467   0.440   0.398   0.408   0.412   0.403   0.407   0.419   0.408   0.417   0.426   0.394   0.421   0.433   0.439   0.457   0.442   0.487   0.463   0.434   0.471   0.450   0.444   0.424   0.435   0.454   0.483   0.450   0.477   0.470   0.478   0.485   0.448   0.450   0.468   0.478   0.444   0.418   0.426   0.423   0.431   0.440   0.430   0.479   0.462   0.497   0.514   0.531   0.583   0.574   0.612   0.639   0.609   0.660   0.620   0.647   0.586   0.552   0.581   0.587   0.611   0.615   0.572   0.555   0.569   0.588   0.550   0.539   0.529   0.545   0.525   0.491   0.487   0.465   0.460   0.431   0.482
   205.60    0.536   0.522   0.539   0.562   0.545   0.541   0.536   0.503   0.468   0.496   0.470   0.442   0.459   0.436   0.447   0.446   0.411   0.423   0.419   0.399   0.439   0.455   0.458   0.473   0.461   0.460   0.452   0.461   0.478   0.467   0.469   0.460   0.488   0.470   0.475   0.451   0.465   0.503   0.532   0.514   0.538   0.555   0.500   0.509   0.513   0.508   0.490   0.505   0.463   0.459   0.450   0.437   0.408   0.415   0.422   0.439   0.450   0.459   0.462   0.442   0.425   0.427   0.429   0.439   0.461   0.441   0.461   0.492   0.528   0.472   0.492   0.488   0.453   0.427   0.462   0.465   0.441   0.450   0.465   0.453   0.450   0.444   0.429   0.441   0.409   0.400   0.437   0.445   0.431   0.442   0.439   0.440   0.455   0.487   0.490   0.431   0.451   0.458   0.467   0.472   0.452   0.436   0.453   0.463   0.431   0.451   0.449   0.470   0.487   0.446   0.454   0.458   0.476   0.464   0.465   0.455   0.451   0.457   0.417   0.385   0.386   0.404   0.432   0.409   0.409   0.401   0.456   0.447   0.432   0.446   0.465   0.435   0.459   0.472   0.473   0.447   0.487   0.480   0.446   0.463   0.472   0.486   0.471   0.478   0.468   0.459   0.456   0.450   0.435   0.437   0.465   0.447   0.451   0.439   0.451   0.424   0.457   0.476   0.449   0.458   0.483   0.476   0.504   0.517   0.551   0.549   0.549   0.589   0.576   0.610   0.597   0.653   0.591   0.598   0.570   0.571   0.592   0.601   0.581   0.566   0.567   0.574   0.570   0.561   0.521   0.508   0.515   0.511   0.474   0.461   0.441   0.485   0.461
   196.30    0.549   0.544   0.517   0.509   0.561   0.554   0.540   0.479   0.480   0.475   0.458   0.449   0.446   0.410   0.406   0.408   0.393   0.408   0.420   0.410   0.416   0.439   0.461   0.466   0.471   0.479   0.465   0.459   0.493   0.470   0.449   0.483   0.475   0.447   0.482   0.466   0.492   0.497   0.487   0.489   0.491   0.527   0.515   0.468   0.468   0.487   0.462   0.439   0.435   0.457   0.427   0.444   0.437   0.432   0.387   0.421   0.419   0.460   0.468   0.469   0.459   0.437   0.478   0.458   0.435   0.451   0.478   0.491   0.492   0.485   0.464   0.456   0.438   0.425   0.432   0.457   0.466   0.419   0.444   0.450   0.467   0.463   0.423   0.408   0.396   0.415   0.427   0.450   0.419   0.407   0.432   0.427   0.443   0.475   0.496   0.459   0.461   0.469   0.468   0.433   0.445   0.473   0.484   0.462   0.441   0.419   0.433   0.473   0.469   0.476   0.454   0.452   0.485   0.494   0.484   0.453   0.482   0.443   0.432   0.397   0.389   0.403   0.410   0.397   0.405   0.416   0.462   0.463   0.458   0.497   0.468   0.487   0.503   0.480   0.483   0.494   0.494   0.470   0.466   0.506   0.541   0.513   0.454   0.470   0.484   0.451   0.413   0.428   0.405   0.411   0.416   0.429   0.420   0.410   0.440   0.460   0.487   0.514   0.466   0.472   0.466   0.476   0.482   0.492   0.519   0.551   0.588   0.582   0.564   0.575   0.600   0.635   0.633   0.601   0.574   0.570   0.589   0.589   0.567   0.554   0.548   0.562   0.586   0.604   0.557   0.533   0.538   0.516   0.502   0.465   0.449   0.500   0.479
   187.00    0.529   0.523   0.476   0.490   0.539   0.535   0.517   0.484   0.462   0.470   0.476   0.478   0.461   0.404   0.417   0.409   0.432   0.423   0.453   0.416   0.436   0.445   0.433   0.457   0.450   0.472   0.470   0.492   0.484   0.467   0.448   0.476   0.452   0.467   0.487   0.464   0.484   0.484   0.484   0.486   0.458   0.475   0.496   0.493   0.476   0.475   0.496   0.477   0.455   0.472   0.422   0.400   0.427   0.409   0.411   0.429   0.439   0.470   0.510   0.487   0.494   0.507   0.520   0.487   0.463   0.436   0.458   0.502   0.487   0.459   0.425   0.425   0.428   0.436   0.437   0.422   0.441   0.410   0.432   0.439   0.466   0.460   0.401   0.395   0.414   0.432   0.433   0.426   0.402   0.371   0.415   0.447   0.456   0.491   0.506   0.481   0.458   0.426   0.416   0.433   0.411   0.453   0.466   0.451   0.470   0.446   0.443   0.485   0.485   0.494   0.476   0.484   0.485   0.504   0.487   0.439   0.469   0.443   0.427   0.422   0.410   0.432   0.444   0.435   0.428   0.431   0.464   0.449   0.456   0.464   0.479   0.489   0.465   0.486   0.469   0.479   0.517   0.520   0.477   0.516   0.566   0.538   0.511   0.480   0.503   0.464   0.448   0.416   0.411   0.403   0.427   0.419   0.423   0.416   0.439   0.461   0.500   0.529   0.470   0.479   0.450   0.469   0.473   0.459   0.488   0.547   0.553   0.586   0.586   0.602   0.600   0.611   0.611   0.563   0.569   0.590   0.580   0.547   0.559   0.582   0.573   0.595   0.607   0.607   0.597   0.569   0.531   0.531   0.508   0.481   0.513   0.489   0.493
   177.70    0.478   0.503   0.471   0.467   0.507   0.542   0.501   0.463   0.500   0.510   0.445   0.458   0.472   0.436   0.434   0.435   0.405   0.379   0.402   0.419   0.419   0.415   0.414   0.404   0.426   0.429   0.463   0.456   0.458   0.473   0.475   0.476   0.474   0.468   0.489   0.448   0.476   0.464   0.485   0.474   0.479   0.458   0.459   0.447   0.454   0.446   0.452   0.488   0.470   0.488   0.433   0.422   0.401   0.393   0.425   0.448   0.445   0.458   0.514   0.493   0.519   0.497   0.503   0.476   0.440   0.447   0.440   0.497   0.481   0.452   0.431   0.425   0.423   0.436   0.404   0.439   0.450   0.421   0.422   0.426   0.434   0.436   0.450   0.420   0.405   0.440   0.446   0.444   0.426   0.411   0.446   0.445   0.480   0.497   0.527   0.489   0.464   0.458   0.445   0.422   0.412   0.440   0.439   0.444   0.443   0.437   0.456   0.475   0.486   0.485   0.459   0.502   0.484   0.487   0.444   0.446   0.433   0.436   0.415   0.443   0.406   0.408   0.445   0.455   0.433   0.431   0.468   0.476   0.457   0.458   0.458   0.445   0.466   0.496   0.480   0.477   0.492   0.515   0.559   0.557   0.559   0.558   0.531   0.497   0.494   0.480   0.462   0.426   0.409   0.429   0.420   0.415   0.426   0.412   0.409   0.449   0.480   0.500   0.486   0.497   0.483   0.482   0.456   0.486   0.465   0.516   0.538   0.577   0.570   0.581   0.604   0.567   0.602   0.566   0.587   0.599   0.589   0.559   0.534   0.572   0.605   0.580   0.555   0.596   0.567   0.601   0.528   0.544   0.518   0.516   0.498   0.487   0.511
   168.40    0.511   0.524   0.481   0.500   0.527   0.495   0.520   0.528   0.523   0.512   0.471   0.471   0.506   0.485   0.433   0.425   0.387   0.386   0.391   0.406   0.412   0.440   0.406   0.421   0.412   0.431   0.458   0.456   0.438   0.452   0.475   0.435   0.458   0.482   0.462   0.472   0.460   0.488   0.511   0.502   0.502   0.487   0.498   0.486   0.465   0.452   0.451   0.487   0.463   0.473   0.410   0.428   0.424   0.418   0.428   0.438   0.487   0.482   0.513   0.534   0.536   0.501   0.468   0.478   0.455   0.452   0.460   0.484   0.516   0.466   0.407   0.434   0.421   0.434   0.417   0.420   0.446   0.421   0.404   0.390   0.407   0.433   0.460   0.445   0.400   0.405   0.431   0.431   0.479   0.454   0.423   0.438   0.468   0.491   0.503   0.520   0.463   0.462   0.449   0.451   0.445   0.460   0.467   0.459   0.458   0.423   0.438   0.467   0.491   0.505   0.491   0.520   0.494   0.490   0.486   0.457   0.438   0.403   0.407   0.433   0.432   0.448   0.456   0.436   0.412   0.425   0.462   0.477   0.469   0.505   0.480   0.476   0.455   0.461   0.468   0.506   0.516   0.515   0.521   0.525   0.548   0.566   0.512   0.509   0.519   0.479   0.445   0.443   0.440   0.428   0.418   0.466   0.438   0.425   0.406   0.434   0.446   0.481   0.487   0.467   0.494   0.520   0.470   0.494   0.486   0.514   0.528   0.540   0.580   0.570   0.586   0.558   0.594   0.606   0.614   0.603   0.573   0.564   0.521   0.576   0.580   0.588   0.593   0.571   0.561   0.566   0.501   0.479   0.511   0.516   0.526   0.509   0.527
   159.10    0.533   0.508   0.480   0.502   0.524   0.505   0.505   0.519   0.521   0.550   0.518   0.525   0.500   0.479   0.474   0.433   0.417   0.419   0.396   0.406   0.399   0.411   0.405   0.443   0.420   0.393   0.432   0.452   0.481   0.472   0.455   0.485   0.460   0.457   0.469   0.466   0.476   0.473   0.508   0.496   0.501   0.518   0.526   0.504   0.463   0.481   0.481   0.456   0.480   0.487   0.442   0.442   0.427   0.435   0.427   0.440   0.451   0.467   0.498   0.536   0.539   0.505   0.487   0.477   0.488   0.454   0.472   0.502   0.523   0.480   0.478   0.480   0.474   0.452   0.440   0.445   0.470   0.453   0.425   0.415   0.419   0.415   0.457   0.446   0.430   0.459   0.429   0.455   0.450   0.450   0.434   0.470   0.466   0.467   0.473   0.471   0.465   0.448   0.455   0.452   0.457   0.458   0.457   0.464   0.458   0.440   0.465   0.502   0.510   0.538   0.527   0.525   0.519   0.469   0.438   0.463   0.416   0.420   0.439   0.441   0.413   0.420   0.454   0.450   0.474   0.439   0.465   0.489   0.479   0.492   0.444   0.454   0.443   0.463   0.478   0.503   0.512   0.501   0.514   0.526   0.533   0.541   0.488   0.517   0.517   0.464   0.442   0.425   0.420   0.439   0.435   0.466   0.444   0.448   0.453   0.426   0.432   0.469   0.519   0.480   0.498   0.497   0.482   0.531   0.560   0.544   0.549   0.559   0.556   0.559   0.589   0.587   0.554   0.583   0.563   0.569   0.591   0.549   0.545   0.565   0.559   0.549   0.563   0.564   0.540   0.489   0.494   0.516   0.529   0.518   0.521   0.546   0.543
   149.80    0.537   0.508   0.527   0.528   0.545   0.502   0.523   0.504   0.522   0.530   0.566   0.524   0.525   0.510   0.441   0.430   0.412   0.418   0.424   0.417   0.409   0.426   0.429   0.423   0.430   0.421   0.446   0.486   0.500   0.462   0.477   0.450   0.461   0.455   0.478   0.510   0.502   0.508   0.486   0.529   0.525   0.517   0.513   0.516   0.508   0.508   0.491   0.479   0.481   0.465   0.454   0.439   0.469   0.429   0.435   0.446   0.469   0.492   0.491   0.530   0.542   0.547   0.516   0.490   0.455   0.463   0.463   0.510   0.537   0.517   0.514   0.480   0.487   0.455   0.467   0.465   0.473   0.447   0.445   0.442   0.428   0.454   0.468   0.457   0.443   0.472   0.447   0.466   0.483   0.449   0.448   0.502   0.486   0.464   0.433   0.434   0.447   0.458   0.459   0.454   0.457   0.466   0.456   0.473   0.455   0.472   0.467   0.505   0.527   0.544   0.544   0.549   0.552   0.482   0.473   0.469   0.443   0.416   0.447   0.428   0.457   0.443   0.448   0.478   0.470   0.490   0.508   0.476   0.481   0.485   0.462   0.447   0.446   0.465   0.486   0.487   0.514   0.505   0.522   0.530   0.539   0.520   0.511   0.507   0.503   0.464   0.490   0.444   0.447   0.468   0.454   0.443   0.443   0.450   0.470   0.444   0.420   0.460   0.472   0.458   0.452   0.500   0.500   0.540   0.564   0.550   0.534   0.557   0.555   0.534   0.567   0.559   0.541   0.544   0.554   0.585   0.541   0.573   0.538   0.537   0.514   0.518   0.548   0.559   0.513   0.502   0.489   0.520   0.534   0.512   0.508   0.535   0.540
   140.50    0.525   0.547   0.502   0.511   0.517   0.494   0.489   0.510   0.516   0.503   0.513   0.515   0.509   0.497   0.456   0.450   0.431   0.403   0.399   0.424   0.417   0.414   0.428   0.417   0.415   0.437   0.489   0.514   0.484   0.482   0.479   0.445   0.474   0.484   0.500   0.491   0.473   0.488   0.519   0.537   0.522   0.515   0.505   0.524   0.512   0.504   0.502   0.491   0.484   0.474   0.459   0.463   0.499   0.479   0.451   0.450   0.463   0.500   0.482   0.496   0.525   0.516   0.533   0.498   0.456   0.464   0.456   0.497   0.524   0.531   0.501   0.471   0.468   0.461   0.477   0.465   0.447   0.457   0.442   0.454   0.432   0.456   0.480   0.449   0.446   0.444   0.463   0.473   0.496   0.467   0.480   0.467   0.439   0.479   0.431   0.423   0.434   0.465   0.497   0.481   0.434   0.445   0.461   0.430   0.466   0.509   0.499   0.534   0.559   0.493   0.507   0.531   0.500   0.490   0.501   0.480   0.463   0.437   0.453   0.426   0.451   0.462   0.426   0.458   0.495   0.508   0.501   0.469   0.487   0.511   0.454   0.479   0.443   0.464   0.475   0.486   0.467   0.525   0.516   0.497   0.538   0.521   0.517   0.521   0.510   0.487   0.493   0.451   0.468   0.468   0.473   0.448   0.455   0.484   0.478   0.482   0.444   0.442   0.447   0.449   0.435   0.457   0.513   0.538   0.591   0.551   0.593   0.559   0.546   0.544   0.516   0.523   0.546   0.556   0.542   0.549   0.532   0.544   0.580   0.504   0.481   0.501   0.527   0.526   0.536   0.531   0.483   0.487   0.506   0.499   0.490   0.515   0.532
   131.20    0.536   0.522   0.509   0.536   0.513   0.498   0.461   0.512   0.510   0.486   0.476   0.506   0.508   0.483   0.493   0.464   0.421   0.436   0.414   0.410   0.411   0.436   0.410   0.423   0.441   0.479   0.481   0.479   0.512   0.493   0.471   0.478   0.470   0.485   0.510   0.482   0.478   0.487   0.469   0.521   0.527   0.547   0.537   0.520   0.521   0.538   0.533   0.521   0.518   0.513   0.487   0.488   0.510   0.482   0.475   0.477   0.462   0.488   0.517   0.495   0.491   0.482   0.476   0.485   0.471   0.463   0.460   0.507   0.530   0.522   0.503   0.490   0.507   0.480   0.474   0.495   0.466   0.452   0.439   0.442   0.436   0.433   0.478   0.466   0.450   0.409   0.465   0.466   0.491   0.475   0.464   0.427   0.432   0.440   0.442   0.419   0.410   0.453   0.486   0.452   0.458   0.455   0.441   0.446   0.463   0.521   0.525   0.545   0.571   0.528   0.499   0.518   0.524   0.510   0.490   0.490   0.469   0.457   0.439   0.434   0.407   0.444   0.413   0.422   0.444   0.472   0.471   0.465   0.528   0.513   0.459   0.485   0.471   0.493   0.488   0.516   0.499   0.493   0.511   0.499   0.530   0.554   0.499   0.530   0.500   0.516   0.513   0.480   0.483   0.504   0.478   0.456   0.464   0.501   0.485   0.493   0.460   0.443   0.454   0.407   0.417   0.487   0.515   0.546   0.549   0.576   0.601   0.555   0.558   0.572   0.550   0.519   0.522   0.536   0.512   0.513   0.488   0.530   0.524   0.520   0.471   0.485   0.532   0.531   0.524   0.550   0.512   0.506   0.538   0.480   0.473   0.511   0.512
   121.90    0.537   0.542   0.518   0.511   0.523   0.528   0.536   0.528   0.505   0.472   0.488   0.478   0.484   0.480   0.457   0.476   0.427   0.415   0.368   0.397   0.415   0.409   0.426   0.406   0.443   0.485   0.472   0.518   0.530   0.498   0.471   0.479   0.478   0.459   0.473   0.441   0.436   0.481   0.496   0.518   0.558   0.556   0.542   0.525   0.533   0.578   0.614   0.574   0.540   0.547   0.516   0.491   0.515   0.491   0.489   0.495   0.442   0.487   0.490   0.505   0.485   0.463   0.471   0.452   0.479   0.511   0.485   0.494   0.494   0.518   0.499   0.489   0.479   0.481   0.498   0.501   0.499   0.490   0.473   0.456   0.461   0.450   0.461   0.469   0.461   0.412   0.416   0.449   0.459   0.471   0.449   0.440   0.446   0.426   0.424   0.409   0.401   0.445   0.469   0.483   0.443   0.442   0.466   0.448   0.495   0.512   0.561   0.578   0.595   0.529   0.511   0.522   0.525   0.517   0.456   0.483   0.473   0.452   0.433   0.396   0.396   0.430   0.402   0.413   0.421   0.460   0.462   0.486   0.502   0.489   0.476   0.466   0.476   0.492   0.522   0.522   0.527   0.507   0.513   0.512   0.530   0.535   0.520   0.507   0.490   0.539   0.536   0.512   0.506   0.496   0.475   0.486   0.484   0.466   0.516   0.478   0.426   0.468   0.426   0.442   0.425   0.486   0.554   0.542   0.552   0.557   0.578   0.567   0.579   0.543   0.502   0.499   0.494   0.504   0.503   0.516   0.538   0.523   0.497   0.517   0.526   0.507   0.546   0.527   0.536   0.518   0.487   0.481   0.522   0.468   0.505   0.515   0.524
   112.60    0.519   0.507   0.549   0.541   0.540   0.554   0.502   0.501   0.476   0.465   0.467   0.454   0.414   0.433   0.453   0.450   0.441   0.419   0.399   0.377   0.402   0.388   0.419   0.425   0.440   0.438   0.462   0.500   0.507   0.472   0.472   0.497   0.465   0.435   0.412   0.456   0.457   0.483   0.488   0.532   0.542   0.557   0.532   0.532   0.546   0.561   0.580   0.528   0.515   0.530   0.495   0.477   0.486   0.491   0.482   0.510   0.455   0.480   0.467   0.470   0.518   0.491   0.457   0.447   0.487   0.514   0.507   0.503   0.535   0.545   0.533   0.506   0.506   0.479   0.504   0.480   0.451   0.470   0.481   0.486   0.466   0.428   0.448   0.476   0.457   0.423   0.417   0.413   0.451   0.467   0.476   0.473   0.458   0.453   0.443   0.443   0.458   0.452   0.465   0.452   0.460   0.490   0.475   0.472   0.494   0.533   0.561   0.591   0.613   0.565   0.543   0.516   0.536   0.486   0.473   0.501   0.484   0.461   0.436   0.455   0.432   0.436   0.449   0.465   0.435   0.476   0.471   0.490   0.482   0.503   0.501   0.499   0.483   0.516   0.506   0.512   0.510   0.536   0.501   0.519   0.549   0.495   0.513   0.489   0.503   0.529   0.539   0.525   0.521   0.494   0.498   0.493   0.473   0.493   0.489   0.488   0.499   0.447   0.447   0.456   0.464   0.485   0.499   0.536   0.562   0.569   0.549   0.548   0.551   0.560   0.537   0.503   0.466   0.477   0.498   0.527   0.540   0.518   0.490   0.471   0.524   0.543   0.529   0.533   0.536   0.506   0.474   0.474   0.514   0.494   0.510   0.537   0.494
   103.30    0.509   0.513   0.537   0.539   0.541   0.514   0.529   0.516   0.484   0.453   0.430   0.411   0.410   0.420   0.427   0.413   0.422   0.430   0.401   0.394   0.418   0.396   0.436   0.436   0.405   0.455   0.485   0.496   0.505   0.498   0.510   0.500   0.456   0.430   0.432   0.453   0.458   0.505   0.502   0.532   0.537   0.519   0.527   0.547   0.526   0.542   0.517   0.475   0.471   0.474   0.446   0.451   0.490   0.493   0.494   0.501   0.481   0.454   0.476   0.482   0.462   0.465   0.435   0.439   0.492   0.535   0.540   0.539   0.555   0.559   0.523   0.505   0.483   0.513   0.487   0.475   0.451   0.456   0.461   0.488   0.469   0.449   0.457   0.466   0.481   0.449   0.451   0.459   0.459   0.459   0.469   0.485   0.471   0.461   0.454   0.470   0.459   0.445   0.477   0.457   0.447   0.492   0.496   0.512   0.543   0.527   0.514   0.571   0.590   0.614   0.576   0.553   0.557   0.519   0.490   0.483   0.478   0.481   0.474   0.469   0.456   0.449   0.475   0.464   0.447   0.469   0.461   0.500   0.507   0.491   0.496   0.518   0.485   0.505   0.507   0.500   0.490   0.519   0.529   0.514   0.501   0.481   0.504   0.504   0.503   0.553   0.561   0.549   0.545   0.535   0.539   0.495   0.483   0.461   0.466   0.472   0.472   0.468   0.475   0.458   0.473   0.487   0.525   0.567   0.557   0.561   0.535   0.500   0.526   0.522   0.520   0.491   0.487   0.458   0.477   0.502   0.485   0.496   0.493   0.501   0.511   0.548   0.580   0.570   0.553   0.530   0.495   0.466   0.500   0.541   0.533   0.529   0.526
    94.00    0.477   0.507   0.525   0.533   0.573   0.559   0.541   0.508   0.468   0.414   0.427   0.414   0.440   0.430   0.423   0.411   0.432   0.420   0.403   0.428   0.403   0.427   0.416   0.415   0.432   0.454   0.486   0.472   0.459   0.477   0.527   0.492   0.486   0.419   0.398   0.432   0.442   0.475   0.503   0.488   0.486   0.502   0.512   0.504   0.488   0.517   0.466   0.439   0.451   0.440   0.411   0.418   0.475   0.474   0.454   0.494   0.496   0.482   0.473   0.469   0.426   0.435   0.437   0.450   0.476   0.508   0.539   0.539   0.515   0.562   0.572   0.497   0.523   0.498   0.492   0.468   0.470   0.478   0.498   0.495   0.470   0.491   0.471   0.459   0.465   0.472   0.482   0.455   0.458   0.461   0.466   0.477   0.491   0.472   0.455   0.456   0.443   0.456   0.484   0.493   0.512   0.493   0.519   0.540   0.525   0.513   0.527   0.571   0.592   0.593   0.615   0.562   0.557   0.541   0.523   0.502   0.469   0.458   0.469   0.479   0.466   0.455   0.471   0.498   0.471   0.503   0.480   0.509   0.521   0.536   0.537   0.496   0.492   0.502   0.514   0.503   0.544   0.517   0.510   0.537   0.508   0.514   0.504   0.541   0.554   0.548   0.549   0.542   0.553   0.544   0.528   0.527   0.532   0.484   0.489   0.477   0.493   0.484   0.487   0.464   0.454   0.470   0.496   0.514   0.559   0.543   0.472   0.483   0.507   0.472   0.482   0.480   0.504   0.488   0.476   0.479   0.511   0.474   0.475   0.462   0.504   0.540   0.568   0.578   0.551   0.536   0.496   0.475   0.493   0.516   0.548   0.509   0.504
    84.70    0.475   0.510   0.510   0.506   0.544   0.559   0.512   0.509   0.468   0.459   0.459   0.451   0.452   0.445   0.425   0.428   0.405   0.404   0.442   0.434   0.398   0.432   0.402   0.424   0.434   0.477   0.515   0.492   0.471   0.477   0.496   0.504   0.474   0.428   0.413   0.439   0.450   0.464   0.495   0.507   0.473   0.458   0.456   0.472   0.463   0.461   0.457   0.421   0.451   0.425   0.412   0.434   0.440   0.472   0.446   0.472   0.467   0.494   0.501   0.475   0.448   0.457   0.459   0.445   0.467   0.505   0.516   0.531   0.530   0.546   0.564   0.527   0.494   0.503   0.485   0.487   0.479   0.499   0.472   0.501   0.482   0.512   0.486   0.493   0.459   0.476   0.486   0.471   0.434   0.460   0.474   0.470   0.490   0.455   0.459   0.467   0.487   0.478   0.480   0.525   0.512   0.507   0.542   0.524   0.525   0.499   0.505   0.559   0.577   0.608   0.587   0.577   0.583   0.551   0.512   0.517   0.490   0.478   0.462   0.488   0.495   0.517   0.506   0.514   0.509   0.483   0.500   0.513   0.510   0.545   0.529   0.535   0.496   0.499   0.495   0.524   0.511   0.507   0.526   0.508   0.540   0.561   0.511   0.528   0.526   0.488   0.500   0.542   0.542   0.555   0.538   0.549   0.526   0.495   0.505   0.470   0.495   0.467   0.458   0.474   0.417   0.445   0.467   0.479   0.517   0.506   0.479   0.482   0.493   0.524   0.484   0.523   0.510   0.491   0.479   0.492   0.513   0.470   0.500   0.461   0.492   0.511   0.530   0.514   0.510   0.517   0.509   0.499   0.518   0.542   0.555   0.545   0.538
    75.40    0.513   0.527   0.490   0.479   0.529   0.507   0.509   0.504   0.475   0.485   0.467   0.452   0.426   0.426   0.397   0.410   0.421   0.413   0.404   0.437   0.396   0.426   0.438   0.426   0.438   0.503   0.539   0.510   0.499   0.486   0.500   0.489   0.479   0.428   0.447   0.456   0.417   0.449   0.477   0.482   0.477   0.462   0.462   0.470   0.470   0.455   0.439   0.416   0.419   0.411   0.379   0.405   0.448   0.460   0.473   0.458   0.457   0.489   0.495   0.484   0.469   0.500   0.511   0.483   0.500   0.525   0.494   0.534   0.548   0.540   0.528   0.549   0.528   0.505   0.474   0.446   0.466   0.477   0.443   0.457   0.501   0.500   0.500   0.479   0.483   0.477   0.452   0.449   0.443   0.435   0.447   0.432   0.452   0.477   0.478   0.453   0.480   0.473   0.484   0.505   0.501   0.515   0.517   0.506   0.509   0.516   0.540   0.576   0.552   0.583   0.600   0.565   0.562   0.539   0.522   0.493   0.487   0.460   0.444   0.493   0.504   0.501   0.489   0.532   0.533   0.540   0.507   0.510   0.526   0.529   0.558   0.531   0.484   0.497   0.512   0.478   0.472   0.509   0.516   0.504   0.521   0.544   0.537   0.547   0.538   0.509   0.508   0.535   0.538   0.543   0.558   0.546   0.524   0.463   0.471   0.495   0.471   0.495   0.459   0.435   0.444   0.460   0.493   0.479   0.496   0.476   0.487   0.483   0.457   0.497   0.492   0.496   0.492   0.479   0.521   0.503   0.496   0.488   0.446   0.479   0.442   0.471   0.504   0.504   0.516   0.512   0.509   0.543   0.511   0.533   0.526   0.532   0.513
    66.10    0.518   0.532   0.536   0.503   0.525   0.547   0.523   0.496   0.476   0.485   0.489   0.427   0.413   0.416   0.432   0.422   0.413   0.405   0.439   0.440   0.410   0.457   0.421   0.460   0.476   0.523   0.530   0.530   0.494   0.471   0.464   0.474   0.479   0.465   0.420   0.427   0.450   0.453   0.475   0.489   0.489   0.458   0.460   0.456   0.441   0.436   0.399   0.444   0.448   0.423   0.405   0.437   0.428   0.471   0.459   0.468   0.501   0.541   0.581   0.513   0.490   0.496   0.509   0.537   0.555   0.518   0.514   0.550   0.553   0.519   0.515   0.527   0.509   0.514   0.514   0.483   0.478   0.495   0.453   0.448   0.475   0.512   0.513   0.482   0.483   0.457   0.464   0.480   0.462   0.453   0.452   0.415   0.452   0.471   0.474   0.465   0.485   0.492   0.518   0.498   0.495   0.489   0.505   0.494   0.510   0.540   0.533   0.558   0.548   0.577   0.617   0.566   0.558   0.545   0.570   0.513   0.472   0.487   0.482   0.487   0.517   0.493   0.513   0.521   0.540   0.561   0.546   0.511   0.531   0.542   0.536   0.512   0.452   0.490   0.486   0.485   0.488   0.542   0.536   0.563   0.574   0.550   0.554   0.546   0.549   0.498   0.522   0.535   0.525   0.583   0.554   0.534   0.542   0.514   0.516   0.510   0.492   0.491   0.469   0.446   0.449   0.475   0.474   0.475   0.492   0.451   0.466   0.507   0.482   0.513   0.462   0.466   0.522   0.524   0.518   0.542   0.507   0.473   0.430   0.434   0.457   0.460   0.475   0.507   0.512   0.518   0.503   0.508   0.526   0.519   0.500   0.511   0.513
    56.80    0.497   0.502   0.514   0.508   0.511   0.531   0.496   0.470   0.482   0.469   0.469   0.440   0.422   0.400   0.389   0.380   0.412   0.421   0.441   0.419   0.430   0.437   0.425   0.494   0.534   0.493   0.517   0.502   0.469   0.462   0.450   0.431   0.465   0.441   0.442   0.452   0.448   0.453   0.464   0.474   0.447   0.429   0.483   0.453   0.442   0.442   0.426   0.453   0.453   0.432   0.419   0.408   0.445   0.459   0.460   0.497   0.513   0.516   0.581   0.579   0.520   0.520   0.502   0.549   0.559   0.506   0.520   0.515   0.498   0.489   0.496   0.500   0.505   0.503   0.489   0.490   0.493   0.493   0.491   0.509   0.488   0.504   0.473   0.473   0.441   0.456   0.449   0.467   0.481   0.480   0.466   0.423   0.484   0.480   0.491   0.481   0.501   0.501   0.497   0.500   0.488   0.491   0.500   0.490   0.541   0.552   0.583   0.570   0.534   0.576   0.593   0.577   0.520   0.530   0.556   0.531   0.480   0.477   0.491   0.516   0.511   0.500   0.490   0.510   0.561   0.565   0.547   0.542   0.548   0.510   0.519   0.508   0.464   0.447   0.460   0.473   0.477   0.535   0.566   0.560   0.559   0.554   0.565   0.565   0.575   0.561   0.541   0.544   0.581   0.575   0.561   0.540   0.543   0.520   0.503   0.469   0.472   0.482   0.467   0.470   0.508   0.528   0.512   0.476   0.475   0.459   0.524   0.517   0.456   0.494   0.514   0.497   0.541   0.536   0.565   0.557   0.542   0.509   0.471   0.467   0.416   0.467   0.453   0.454   0.466   0.488   0.511   0.505   0.480   0.491   0.483   0.486   0.533
    47.50    0.526   0.488   0.488   0.470   0.499   0.501   0.466   0.427   0.443   0.444   0.463   0.457   0.457   0.410   0.399   0.365   0.405   0.420   0.419   0.373   0.401   0.427   0.471   0.506   0.500   0.512   0.493   0.516   0.491   0.445   0.419   0.451   0.447   0.436   0.447   0.445   0.415   0.453   0.491   0.472   0.439   0.418   0.461   0.477   0.444   0.471   0.464   0.490   0.478   0.452   0.459   0.476   0.441   0.453   0.475   0.483   0.504   0.556   0.582   0.555   0.546   0.562   0.553   0.579   0.541   0.514   0.483   0.507   0.467   0.465   0.465   0.474   0.487   0.474   0.481   0.465   0.473   0.471   0.482   0.490   0.498   0.508   0.504   0.484   0.466   0.448   0.455   0.469   0.485   0.486   0.494   0.478   0.493   0.487   0.464   0.468   0.494   0.479   0.494   0.488   0.491   0.499   0.517   0.515   0.548   0.554   0.590   0.586   0.571   0.525   0.544   0.567   0.545   0.508   0.534   0.522   0.477   0.476   0.460   0.490   0.492   0.503   0.491   0.494   0.519   0.554   0.570   0.527   0.546   0.509   0.471   0.492   0.440   0.473   0.476   0.488   0.492   0.534   0.527   0.541   0.561   0.581   0.572   0.568   0.539   0.535   0.538   0.516   0.564   0.559   0.540   0.546   0.533   0.490   0.474   0.454   0.465   0.520   0.508   0.507   0.525   0.519   0.527   0.517   0.518   0.498   0.531   0.524   0.481   0.515   0.550   0.554   0.525   0.574   0.590   0.559   0.528   0.515   0.493   0.447   0.427   0.465   0.491   0.493   0.523   0.481   0.507   0.502   0.492   0.502   0.492   0.484   0.505
    38.20    0.493   0.478   0.462   0.463   0.467   0.441   0.413   0.446   0.455   0.441   0.448   0.465   0.463   0.409   0.390   0.394   0.418   0.385   0.382   0.366   0.391   0.433   0.473   0.494   0.517   0.534   0.480   0.460   0.469   0.465   0.434   0.438   0.470   0.455   0.457   0.455   0.445   0.459   0.497   0.496   0.485   0.467   0.438   0.447   0.463   0.444   0.473   0.472   0.498   0.507   0.522   0.483   0.463   0.456   0.458   0.468   0.530   0.555   0.568   0.576   0.550   0.544   0.576   0.575   0.541   0.526   0.522   0.536   0.497   0.496   0.488   0.464   0.489   0.499   0.479   0.509   0.485   0.502   0.479   0.478   0.461   0.478   0.481   0.475   0.435   0.455   0.452   0.495   0.498   0.519   0.511   0.486   0.464   0.488   0.477   0.465   0.457   0.451   0.474   0.469   0.464   0.470   0.495   0.515   0.542   0.542   0.556   0.545   0.536   0.544   0.504   0.527   0.533   0.512   0.502   0.472   0.480   0.451   0.440   0.462   0.486   0.522   0.552   0.556   0.524   0.557   0.601   0.531   0.549   0.540   0.513   0.487   0.471   0.456   0.466   0.470   0.520   0.498   0.532   0.520   0.516   0.553   0.538   0.548   0.534   0.525   0.542   0.559   0.554   0.543   0.521   0.532   0.508   0.504   0.475   0.441   0.501   0.557   0.539   0.524   0.547   0.537   0.520   0.507   0.520   0.533   0.555   0.568   0.535   0.539   0.539   0.549   0.525   0.568   0.596   0.577   0.543   0.512   0.451   0.447   0.433   0.489   0.489   0.500   0.534   0.511   0.495   0.493   0.472   0.493   0.484   0.478   0.484
    28.90    0.432   0.439   0.486   0.471   0.486   0.426   0.442   0.463   0.480   0.447   0.456   0.458   0.425   0.405   0.415   0.389   0.391   0.346   0.372   0.383   0.418   0.437   0.482   0.485   0.491   0.512   0.497   0.534   0.492   0.506   0.479   0.480   0.479   0.474   0.486   0.450   0.464   0.463   0.495   0.488   0.475   0.421   0.429   0.458   0.462   0.449   0.477   0.469   0.473   0.519   0.519   0.487   0.492   0.515   0.475   0.493   0.524   0.556   0.551   0.543   0.546   0.568   0.572   0.540   0.552   0.495   0.486   0.534   0.496   0.470   0.462   0.488   0.490   0.517   0.512   0.511   0.480   0.478   0.451   0.472   0.433   0.431   0.431   0.483   0.489   0.506   0.504   0.506   0.501   0.524   0.524   0.512   0.467   0.513   0.474   0.468   0.458   0.429   0.426   0.477   0.494   0.488   0.512   0.501   0.513   0.511   0.543   0.575   0.560   0.534   0.490   0.513   0.507   0.504   0.510   0.490   0.499   0.516   0.467   0.458   0.483   0.511   0.560   0.556   0.569   0.560   0.573   0.533   0.551   0.508   0.529   0.491   0.479   0.501   0.500   0.498   0.498   0.488   0.531   0.503   0.508   0.510   0.512   0.528   0.540   0.527   0.539   0.566   0.578   0.547   0.532   0.505   0.530   0.489   0.490   0.475   0.489   0.525   0.519   0.535   0.527   0.530   0.542   0.511   0.547   0.573   0.581   0.581   0.582   0.550   0.520   0.520   0.525   0.551   0.561   0.558   0.532   0.510   0.467   0.460   0.450   0.488   0.485   0.459   0.486   0.504   0.550   0.519   0.475   0.461   0.487   0.498   0.506
    19.60    0.445   0.426   0.451   0.447   0.484   0.461   0.453   0.448   0.471   0.471   0.468   0.438   0.418   0.400   0.397   0.389   0.374   0.368   0.380   0.390   0.402   0.418   0.463   0.477   0.439   0.497   0.514   0.544   0.511   0.495   0.486   0.472   0.494   0.518   0.482   0.469   0.468   0.473   0.475   0.459   0.476   0.429   0.460   0.499   0.488   0.491   0.506   0.485   0.503   0.513   0.520   0.520   0.510   0.484   0.503   0.520   0.533   0.535   0.522   0.507   0.520   0.558   0.551   0.554   0.546   0.512   0.501   0.496   0.504   0.510   0.482   0.503   0.519   0.534   0.519   0.517   0.514   0.491   0.464   0.429   0.449   0.442   0.437   0.500   0.535   0.513   0.505   0.508   0.513   0.514   0.508   0.500   0.528   0.532   0.508   0.453   0.420   0.425   0.428   0.485   0.504   0.490   0.512   0.496   0.488   0.484   0.524   0.533   0.541   0.498   0.487   0.474   0.514   0.499   0.508   0.524   0.525   0.494   0.478   0.472   0.506   0.505   0.526   0.566   0.549   0.548   0.528   0.542   0.539   0.495   0.532   0.494   0.483   0.497   0.498   0.456   0.458   0.517   0.535   0.492   0.523   0.527   0.509   0.550   0.554   0.548   0.548   0.534   0.546   0.553   0.508   0.503   0.532   0.492   0.456   0.439   0.499   0.547   0.565   0.555   0.524   0.544   0.572   0.544   0.559   0.579   0.601   0.598   0.561   0.534   0.492   0.485   0.491   0.528   0.547   0.518   0.501   0.455   0.498   0.479   0.465   0.456   0.456   0.432   0.470   0.490   0.510   0.520   0.491   0.480   0.487   0.475   0.510
    10.30    0.442   0.446   0.466   0.457   0.448   0.445   0.458   0.489   0.475   0.439   0.463   0.429   0.431   0.422   0.414   0.386   0.384   0.418   0.408   0.443   0.434   0.441   0.465   0.467   0.459   0.472   0.456   0.514   0.522   0.512   0.497   0.525   0.503   0.486   0.499   0.461   0.484   0.468   0.462   0.471   0.454   0.455   0.481   0.498   0.478   0.484   0.483   0.463   0.523   0.534   0.514   0.510   0.495   0.502   0.530   0.527   0.514   0.536   0.511   0.522   0.558   0.524   0.564   0.559   0.551   0.560   0.515   0.525   0.489   0.510   0.515   0.524   0.528   0.533   0.523   0.524   0.521   0.491   0.476   0.489   0.464   0.519   0.512   0.520   0.527   0.527   0.530   0.534   0.528   0.489   0.534   0.521   0.526   0.521   0.489   0.462   0.427   0.450   0.449   0.476   0.483   0.481   0.489   0.459   0.466   0.500   0.542   0.536   0.530   0.485   0.471   0.457   0.477   0.498   0.484   0.535   0.557   0.508   0.497   0.470   0.493   0.522   0.485   0.544   0.531   0.550   0.512   0.489   0.495   0.467   0.517   0.502   0.503   0.486   0.465   0.453   0.462   0.491   0.512   0.495   0.490   0.512   0.525   0.558   0.579   0.554   0.562   0.546   0.544   0.554   0.513   0.539   0.497   0.495   0.475   0.489   0.481   0.539   0.569   0.534   0.531   0.556   0.554   0.581   0.598   0.549   0.569   0.583   0.532   0.519   0.514   0.525   0.504   0.509   0.501   0.487   0.483   0.488   0.453   0.456   0.464   0.454   0.454   0.449   0.481   0.487   0.502   0.518   0.521   0.499   0.472   0.504   0.520
     1.00    0.477   0.444   0.464   0.465   0.464   0.466   0.447   0.481   0.447   0.449   0.431   0.447   0.456   0.426   0.409   0.376   0.411   0.449   0.464   0.467   0.452   0.443   0.460   0.454   0.436   0.465   0.470   0.502   0.526   0.519   0.512   0.542   0.513   0.505   0.477   0.471   0.453   0.452   0.445   0.437   0.447   0.460   0.469   0.471   0.475   0.486   0.478   0.480   0.504   0.515   0.513   0.515   0.464   0.484   0.541   0.544   0.529   0.569   0.512   0.525   0.550   0.563   0.524   0.560   0.530   0.545   0.543   0.538   0.534   0.511   0.520   0.498   0.502   0.491   0.474   0.513   0.535   0.544   0.506   0.504   0.464   0.515   0.520   0.530   0.494   0.512   0.513   0.527   0.535   0.484   0.519   0.521   0.534   0.516   0.490   0.460   0.455   0.486   0.491   0.507   0.535   0.518   0.485   0.458   0.449   0.482   0.496   0.536   0.518   0.480   0.444   0.485   0.457   0.477   0.480   0.526   0.556   0.520   0.512   0.489   0.528   0.512   0.505   0.518   0.540   0.557   0.518   0.480   0.500   0.490   0.500   0.547   0.517   0.476   0.473   0.441   0.453   0.479   0.492   0.486   0.495   0.488   0.510   0.533   0.518   0.553   0.528   0.536   0.532   0.543   0.565   0.555   0.503   0.522   0.498   0.495   0.526   0.539   0.548   0.518   0.525   0.529   0.520   0.552   0.579   0.549   0.565   0.548   0.563   0.538   0.525   0.503   0.513   0.526   0.514   0.497   0.479   0.458   0.471   0.454   0.434   0.447   0.454   0.435   0.461   0.486   0.509   0.514   0.493   0.477   0.502   0.471   0.512

   Height   Standard deviation at grid points for the v component:
   354.40    0.385   0.394   0.405   0.413   0.400   0.375   0.372   0.356   0.358   0.359   0.371   0.392   0.397   0.375   0.388   0.377   0.381   0.373   0.386   0.373   0.386   0.361   0.367   0.371   0.378   0.372   0.388   0.386   0.390   0.382   0.375   0.339   0.328   0.356   0.376   0.378   0.381   0.357   0.363   0.366   0.360   0.365   0.382   0.387   0.383   0.398   0.401   0.388   0.388   0.386   0.379   0.391   0.395   0.389   0.398   0.382   0.383   0.367   0.394   0.390   0.374   0.369   0.378   0.377   0.387   0.402   0.410   0.395   0.409   0.402   0.391   0.398   0.397   0.403   0.393   0.377   0.377   0.373   0.364   0.358   0.374   0.360   0.356   0.358   0.376   0.382   0.374   0.359   0.362   0.365   0.334   0.344   0.353   0.337   0.364   0.371   0.346   0.353   0.361   0.374   0.360   0.358   0.362   0.364   0.379   0.363   0.367   0.368   0.404   0.415   0.395   0.403   0.396   0.402   0.394   0.396   0.409   0.389   0.403   0.412   0.375   0.391   0.381   0.382   0.363   0.357   0.366   0.365   0.358   0.365   0.373   0.400   0.383   0.378   0.363   0.357   0.366   0.389   0.404   0.426   0.417   0.396   0.389   0.401   0.400   0.392   0.401   0.417   0.404   0.397   0.395   0.428   0.422   0.399   0.388   0.373   0.372   0.375   0.381   0.395   0.379   0.398   0.380   0.393   0.407   0.412   0.412   0.420   0.405   0.421   0.395   0.395   0.399   0.403   0.407   0.408   0.436   0.435   0.440   0.433   0.418   0.432   0.405   0.434   0.426   0.439   0.435   0.441   0.422   0.424   0.427   0.422   0.398
   345.10    0.400   0.399   0.396   0.382   0.383   0.356   0.355   0.357   0.361   0.365   0.381   0.376   0.374   0.363   0.366   0.375   0.383   0.359   0.359   0.369   0.372   0.367   0.365   0.353   0.399   0.393   0.373   0.368   0.357   0.376   0.383   0.373   0.373   0.370   0.372   0.387   0.380   0.359   0.350   0.363   0.372   0.398   0.404   0.407   0.406   0.390   0.398   0.393   0.396   0.401   0.389   0.405   0.411   0.382   0.389   0.395   0.371   0.360   0.360   0.368   0.367   0.361   0.394   0.389   0.402   0.400   0.418   0.415   0.401   0.395   0.385   0.396   0.395   0.390   0.375   0.395   0.401   0.394   0.362   0.371   0.361   0.349   0.351   0.369   0.382   0.378   0.375   0.347   0.355   0.345   0.336   0.326   0.341   0.354   0.345   0.347   0.357   0.342   0.357   0.357   0.358   0.347   0.360   0.357   0.377   0.376   0.384   0.387   0.386   0.406   0.404   0.403   0.392   0.399   0.398   0.381   0.408   0.388   0.395   0.397   0.412   0.395   0.390   0.362   0.370   0.375   0.382   0.388   0.377   0.359   0.358   0.380   0.392   0.386   0.395   0.372   0.366   0.400   0.413   0.400   0.399   0.410   0.395   0.396   0.389   0.387   0.395   0.403   0.423   0.395   0.407   0.423   0.415   0.385   0.387   0.392   0.414   0.403   0.410   0.398   0.405   0.403   0.395   0.379   0.396   0.413   0.417   0.435   0.431   0.430   0.427   0.400   0.397   0.410   0.390   0.420   0.434   0.428   0.421   0.426   0.417   0.399   0.402   0.397   0.425   0.447   0.427   0.420   0.415   0.407   0.415   0.407   0.389
   335.80    0.391   0.394   0.399   0.406   0.387   0.356   0.348   0.353   0.350   0.364   0.368   0.364   0.373   0.400   0.364   0.351   0.361   0.380   0.363   0.368   0.372   0.372   0.372   0.387   0.394   0.383   0.372   0.338   0.364   0.385   0.377   0.374   0.370   0.387   0.390   0.392   0.380   0.367   0.353   0.383   0.409   0.448   0.427   0.439   0.417   0.392   0.386   0.384   0.385   0.403   0.383   0.411   0.421   0.409   0.406   0.396   0.373   0.373   0.351   0.370   0.380   0.391   0.379   0.401   0.404   0.404   0.398   0.404   0.410   0.389   0.381   0.381   0.378   0.373   0.389   0.381   0.393   0.395   0.361   0.363   0.379   0.361   0.360   0.374   0.376   0.362   0.377   0.358   0.347   0.332   0.336   0.334   0.346   0.351   0.335   0.340   0.349   0.355   0.370   0.373   0.349   0.359   0.362   0.363   0.353   0.373   0.365   0.386   0.387   0.400   0.394   0.418   0.414   0.400   0.401   0.376   0.382   0.375   0.357   0.381   0.392   0.376   0.368   0.370   0.375   0.383   0.390   0.395   0.365   0.367   0.367   0.381   0.377   0.392   0.391   0.398   0.378   0.399   0.399   0.400   0.401   0.405   0.409   0.395   0.412   0.419   0.383   0.392   0.393   0.401   0.411   0.410   0.399   0.387   0.378   0.396   0.401   0.410   0.417   0.373   0.394   0.416   0.388   0.365   0.379   0.398   0.406   0.414   0.407   0.426   0.422   0.411   0.411   0.386   0.405   0.430   0.420   0.423   0.429   0.414   0.393   0.397   0.396   0.407   0.418   0.428   0.418   0.400   0.395   0.399   0.408   0.417   0.385
   326.50    0.403   0.406   0.418   0.392   0.390   0.375   0.363   0.346   0.353   0.345   0.347   0.370   0.384   0.401   0.389   0.370   0.369   0.366   0.380   0.364   0.369   0.372   0.385   0.394   0.380   0.365   0.372   0.369   0.382   0.364   0.362   0.368   0.371   0.378   0.376   0.396   0.389   0.378   0.393   0.390   0.400   0.425   0.432   0.416   0.395   0.392   0.385   0.402   0.405   0.397   0.387   0.396   0.403   0.420   0.398   0.357   0.368   0.388   0.382   0.362   0.361   0.386   0.389   0.402   0.401   0.385   0.382   0.396   0.386   0.364   0.355   0.361   0.360   0.374   0.396   0.378   0.388   0.387   0.383   0.376   0.380   0.389   0.378   0.387   0.378   0.367   0.388   0.360   0.363   0.357   0.345   0.339   0.361   0.339   0.360   0.369   0.359   0.365   0.362   0.387   0.368   0.357   0.367   0.357   0.365   0.369   0.366   0.385   0.398   0.388   0.380   0.398   0.402   0.382   0.378   0.351   0.382   0.375   0.379   0.389   0.403   0.364   0.370   0.370   0.372   0.379   0.379   0.364   0.353   0.362   0.354   0.371   0.370   0.384   0.392   0.405   0.399   0.406   0.419   0.410   0.406   0.414   0.431   0.403   0.410   0.389   0.402   0.408   0.403   0.423   0.403   0.402   0.384   0.394   0.388   0.391   0.382   0.383   0.369   0.388   0.399   0.405   0.394   0.375   0.384   0.410   0.420   0.413   0.417   0.422   0.429   0.408   0.384   0.377   0.392   0.412   0.424   0.426   0.418   0.438   0.417   0.414   0.399   0.430   0.426   0.419   0.393   0.387   0.391   0.408   0.412   0.418   0.403
[...]
   103.30    0.236   0.232   0.238   0.238   0.246   0.238   0.238   0.238   0.232   0.240   0.241   0.238   0.237   0.242   0.241   0.232   0.232   0.231   0.223   0.225   0.223   0.229   0.235   0.236   0.231   0.236   0.244   0.248   0.243   0.243   0.246   0.235   0.234   0.232   0.233   0.247   0.236   0.228   0.230   0.234   0.237   0.236   0.235   0.234   0.230   0.237   0.238   0.244   0.241   0.233   0.229   0.233   0.218   0.236   0.243   0.234   0.226   0.233   0.233   0.238   0.235   0.237   0.246   0.238   0.242   0.239   0.239   0.231   0.237   0.241   0.235   0.232   0.224   0.230   0.232   0.234   0.228   0.227   0.236   0.240   0.239   0.237   0.240   0.241   0.236   0.243   0.239   0.245   0.237   0.232   0.237   0.244   0.244   0.244   0.254   0.253   0.245   0.245   0.244   0.245   0.234   0.239   0.241   0.250   0.251   0.235   0.237   0.241   0.242   0.245   0.243   0.231   0.235   0.225   0.227   0.234   0.226   0.231   0.225   0.227   0.224   0.224   0.231   0.236   0.230   0.236   0.241   0.240   0.233   0.229   0.238   0.235   0.234   0.223   0.227   0.230   0.235   0.235   0.234   0.234   0.227   0.234   0.227   0.239   0.233   0.240   0.244   0.231   0.239   0.248   0.243   0.239   0.241   0.241   0.239   0.243   0.241   0.245   0.238   0.236   0.232   0.239   0.241   0.243   0.236   0.246   0.251   0.251   0.248   0.240   0.238   0.243   0.239   0.231   0.223   0.226   0.228   0.226   0.233   0.235   0.229   0.225   0.225   0.239   0.236   0.239   0.244   0.238   0.236   0.246   0.242   0.241   0.235
    94.00    0.233   0.230   0.234   0.244   0.248   0.240   0.231   0.230   0.227   0.230   0.239   0.237   0.230   0.239   0.237   0.239   0.235   0.237   0.229   0.226   0.229   0.232   0.238   0.237   0.238   0.233   0.239   0.246   0.241   0.230   0.230   0.234   0.233   0.229   0.229   0.244   0.240   0.237   0.228   0.231   0.234   0.238   0.233   0.239   0.237   0.238   0.233   0.233   0.237   0.235   0.226   0.229   0.228   0.231   0.238   0.233   0.240   0.232   0.242   0.237   0.233   0.248   0.245   0.242   0.235   0.230   0.235   0.231   0.237   0.241   0.233   0.235   0.230   0.233   0.233   0.230   0.228   0.231   0.237   0.231   0.246   0.242   0.235   0.244   0.237   0.237   0.242   0.243   0.240   0.241   0.243   0.243   0.244   0.254   0.248   0.241   0.240   0.249   0.244   0.246   0.249   0.246   0.238   0.249   0.245   0.240   0.249   0.248   0.247   0.242   0.236   0.226   0.236   0.232   0.236   0.240   0.236   0.235   0.235   0.228   0.232   0.231   0.224   0.231   0.239   0.232   0.235   0.232   0.238   0.230   0.238   0.242   0.234   0.239   0.230   0.235   0.232   0.232   0.241   0.233   0.231   0.236   0.237   0.246   0.244   0.242   0.244   0.246   0.233   0.243   0.251   0.245   0.242   0.233   0.240   0.242   0.236   0.242   0.240   0.244   0.235   0.237   0.230   0.234   0.238   0.233   0.247   0.252   0.249   0.242   0.239   0.242   0.240   0.225   0.238   0.223   0.225   0.226   0.230   0.235   0.241   0.233   0.228   0.233   0.231   0.232   0.231   0.240   0.242   0.246   0.245   0.241   0.242
    84.70    0.237   0.231   0.244   0.255   0.244   0.244   0.243   0.242   0.242   0.241   0.233   0.231   0.230   0.239   0.234   0.239   0.237   0.235   0.237   0.228   0.229   0.239   0.234   0.243   0.239   0.235   0.239   0.247   0.246   0.245   0.235   0.228   0.221   0.222   0.231   0.234   0.232   0.225   0.227   0.230   0.230   0.238   0.232   0.235   0.234   0.239   0.238   0.233   0.231   0.233   0.238   0.241   0.240   0.241   0.241   0.241   0.236   0.232   0.237   0.239   0.243   0.245   0.242   0.239   0.234   0.234   0.240   0.241   0.233   0.239   0.240   0.234   0.231   0.243   0.236   0.236   0.237   0.234   0.234   0.242   0.244   0.240   0.250   0.238   0.243   0.241   0.242   0.242   0.235   0.241   0.244   0.243   0.242   0.249   0.248   0.248   0.244   0.245   0.248   0.250   0.248   0.244   0.239   0.240   0.236   0.236   0.237   0.235   0.239   0.246   0.236   0.231   0.232   0.238   0.247   0.245   0.236   0.235   0.230   0.227   0.237   0.232   0.231   0.227   0.234   0.238   0.231   0.237   0.240   0.233   0.238   0.238   0.238   0.231   0.238   0.229   0.236   0.241   0.234   0.231   0.232   0.243   0.241   0.249   0.241   0.240   0.243   0.248   0.248   0.244   0.242   0.241   0.240   0.230   0.234   0.244   0.244   0.242   0.242   0.240   0.242   0.235   0.237   0.232   0.236   0.233   0.244   0.242   0.246   0.239   0.245   0.240   0.235   0.230   0.232   0.229   0.226   0.232   0.234   0.234   0.238   0.235   0.228   0.232   0.225   0.232   0.239   0.236   0.241   0.245   0.245   0.246   0.251
    75.40    0.234   0.240   0.247   0.245   0.239   0.239   0.236   0.243   0.245   0.242   0.231   0.231   0.231   0.235   0.232   0.235   0.248   0.229   0.237   0.231   0.235   0.236   0.239   0.247   0.242   0.244   0.242   0.233   0.236   0.236   0.240   0.229   0.231   0.232   0.235   0.234   0.232   0.229   0.223   0.234   0.236   0.232   0.235   0.247   0.233   0.235   0.237   0.227   0.240   0.236   0.237   0.238   0.244   0.238   0.235   0.242   0.239   0.238   0.234   0.243   0.243   0.247   0.239   0.241   0.245   0.241   0.234   0.237   0.240   0.228   0.234   0.231   0.232   0.237   0.232   0.235   0.240   0.232   0.242   0.237   0.241   0.243   0.242   0.238   0.236   0.236   0.236   0.234   0.235   0.240   0.247   0.241   0.249   0.251   0.250   0.252   0.248   0.256   0.243   0.252   0.255   0.245   0.229   0.228   0.240   0.229   0.238   0.239   0.239   0.242   0.237   0.235   0.229   0.239   0.242   0.242   0.238   0.231   0.223   0.232   0.229   0.238   0.230   0.226   0.240   0.241   0.238   0.235   0.247   0.245   0.236   0.243   0.235   0.226   0.229   0.231   0.239   0.236   0.242   0.234   0.227   0.236   0.241   0.244   0.238   0.245   0.236   0.240   0.240   0.243   0.244   0.236   0.241   0.227   0.226   0.240   0.241   0.236   0.234   0.233   0.234   0.233   0.242   0.236   0.230   0.237   0.237   0.238   0.242   0.241   0.238   0.243   0.233   0.227   0.226   0.229   0.230   0.237   0.241   0.232   0.238   0.227   0.228   0.232   0.240   0.236   0.237   0.239   0.239   0.240   0.250   0.244   0.243
    66.10    0.242   0.238   0.246   0.239   0.242   0.238   0.245   0.247   0.243   0.233   0.230   0.242   0.233   0.229   0.232   0.238   0.238   0.239   0.237   0.236   0.237   0.239   0.245   0.241   0.239   0.250   0.241   0.242   0.240   0.230   0.235   0.237   0.235   0.234   0.234   0.241   0.240   0.234   0.238   0.237   0.229   0.235   0.232   0.239   0.235   0.233   0.228   0.228   0.236   0.228   0.233   0.248   0.238   0.246   0.238   0.247   0.240   0.240   0.232   0.239   0.245   0.243   0.246   0.256   0.244   0.245   0.240   0.239   0.241   0.230   0.229   0.229   0.235   0.241   0.246   0.249   0.246   0.239   0.248   0.248   0.247   0.244   0.239   0.233   0.240   0.234   0.239   0.236   0.236   0.244   0.249   0.239   0.243   0.250   0.255   0.246   0.244   0.248   0.252   0.258   0.244   0.246   0.229   0.235   0.236   0.235   0.235   0.240   0.247   0.241   0.237   0.234   0.228   0.233   0.244   0.245   0.235   0.239   0.229   0.235   0.225   0.237   0.229   0.233   0.231   0.238   0.226   0.229   0.237   0.241   0.242   0.242   0.240   0.233   0.237   0.240   0.238   0.238   0.235   0.232   0.228   0.241   0.234   0.231   0.233   0.230   0.234   0.235   0.235   0.236   0.238   0.232   0.231   0.226   0.226   0.234   0.229   0.232   0.227   0.229   0.233   0.234   0.242   0.242   0.237   0.239   0.233   0.237   0.240   0.238   0.234   0.239   0.237   0.230   0.228   0.226   0.240   0.244   0.238   0.236   0.236   0.237   0.232   0.231   0.248   0.251   0.242   0.241   0.235   0.235   0.241   0.244   0.249
    56.80    0.241   0.246   0.248   0.240   0.243   0.248   0.244   0.248   0.242   0.237   0.230   0.235   0.236   0.243   0.230   0.235   0.243   0.234   0.231   0.234   0.247   0.244   0.243   0.240   0.242   0.248   0.242   0.248   0.243   0.239   0.235   0.242   0.236   0.230   0.236   0.237   0.234   0.235   0.235   0.241   0.234   0.243   0.233   0.232   0.230   0.229   0.237   0.232   0.238   0.235   0.234   0.246   0.246   0.245   0.237   0.239   0.245   0.247   0.236   0.232   0.235   0.234   0.241   0.252   0.242   0.244   0.234   0.235   0.233   0.241   0.236   0.239   0.244   0.251   0.244   0.244   0.237   0.239   0.241   0.239   0.243   0.234   0.235   0.234   0.231   0.241   0.245   0.242   0.244   0.249   0.247   0.241   0.241   0.246   0.249   0.247   0.242   0.238   0.245   0.246   0.242   0.241   0.240   0.241   0.235   0.232   0.235   0.236   0.246   0.242   0.240   0.240   0.235   0.249   0.246   0.237   0.242   0.237   0.227   0.228   0.226   0.235   0.241   0.239   0.233   0.236   0.233   0.237   0.237   0.237   0.235   0.233   0.241   0.238   0.239   0.248   0.239   0.232   0.225   0.238   0.250   0.243   0.231   0.231   0.239   0.231   0.238   0.236   0.243   0.239   0.240   0.232   0.228   0.229   0.227   0.235   0.224   0.227   0.228   0.234   0.235   0.235   0.231   0.232   0.232   0.236   0.240   0.240   0.238   0.233   0.239   0.230   0.233   0.229   0.230   0.229   0.233   0.243   0.239   0.234   0.235   0.240   0.230   0.234   0.237   0.246   0.243   0.239   0.235   0.240   0.240   0.248   0.246
    47.50    0.242   0.244   0.256   0.248   0.251   0.251   0.239   0.241   0.243   0.245   0.234   0.235   0.235   0.233   0.241   0.242   0.240   0.234   0.229   0.240   0.243   0.243   0.235   0.243   0.242   0.251   0.247   0.241   0.244   0.240   0.238   0.246   0.245   0.234   0.235   0.235   0.236   0.236   0.247   0.239   0.233   0.240   0.236   0.237   0.233   0.233   0.235   0.237   0.232   0.242   0.236   0.244   0.244   0.243   0.229   0.233   0.241   0.236   0.234   0.229   0.240   0.238   0.245   0.239   0.239   0.242   0.244   0.237   0.242   0.240   0.238   0.235   0.235   0.242   0.239   0.234   0.231   0.236   0.234   0.231   0.236   0.233   0.235   0.239   0.234   0.237   0.238   0.239   0.246   0.250   0.239   0.246   0.246   0.241   0.238   0.248   0.246   0.242   0.240   0.234   0.238   0.230   0.234   0.228   0.235   0.229   0.235   0.238   0.246   0.251   0.247   0.243   0.237   0.242   0.231   0.239   0.237   0.240   0.237   0.239   0.236   0.242   0.249   0.242   0.240   0.231   0.241   0.242   0.241   0.242   0.235   0.234   0.240   0.242   0.245   0.250   0.247   0.239   0.233   0.236   0.239   0.235   0.232   0.234   0.238   0.234   0.233   0.236   0.236   0.242   0.240   0.230   0.232   0.236   0.227   0.229   0.230   0.224   0.231   0.231   0.235   0.236   0.234   0.231   0.230   0.231   0.228   0.237   0.229   0.236   0.237   0.232   0.231   0.232   0.231   0.233   0.229   0.235   0.237   0.244   0.239   0.242   0.248   0.239   0.244   0.244   0.244   0.237   0.235   0.240   0.239   0.250   0.243
    38.20    0.237   0.245   0.249   0.245   0.248   0.245   0.242   0.254   0.249   0.243   0.236   0.227   0.240   0.237   0.239   0.244   0.238   0.237   0.233   0.241   0.241   0.235   0.238   0.247   0.241   0.247   0.244   0.239   0.242   0.240   0.243   0.240   0.244   0.237   0.240   0.237   0.235   0.233   0.239   0.247   0.252   0.248   0.247   0.238   0.235   0.235   0.236   0.236   0.233   0.232   0.244   0.247   0.239   0.241   0.232   0.228   0.233   0.233   0.230   0.229   0.233   0.246   0.242   0.243   0.244   0.239   0.243   0.240   0.229   0.235   0.236   0.228   0.231   0.237   0.243   0.244   0.235   0.236   0.231   0.228   0.235   0.241   0.237   0.241   0.235   0.238   0.237   0.240   0.241   0.241   0.238   0.233   0.240   0.243   0.242   0.244   0.251   0.243   0.238   0.234   0.230   0.231   0.234   0.232   0.238   0.242   0.234   0.239   0.232   0.251   0.241   0.238   0.238   0.233   0.228   0.236   0.240   0.241   0.246   0.240   0.240   0.239   0.239   0.235   0.238   0.237   0.243   0.242   0.237   0.229   0.239   0.242   0.244   0.243   0.239   0.239   0.250   0.244   0.234   0.227   0.234   0.236   0.238   0.238   0.234   0.229   0.232   0.237   0.237   0.240   0.237   0.239   0.232   0.237   0.236   0.228   0.228   0.225   0.227   0.235   0.229   0.229   0.237   0.233   0.231   0.232   0.230   0.234   0.231   0.222   0.229   0.229   0.224   0.226   0.229   0.230   0.224   0.229   0.237   0.242   0.251   0.242   0.239   0.242   0.243   0.246   0.246   0.252   0.252   0.239   0.250   0.251   0.252
    28.90    0.238   0.243   0.241   0.238   0.249   0.243   0.247   0.250   0.248   0.244   0.243   0.235   0.240   0.238   0.234   0.241   0.240   0.233   0.238   0.244   0.243   0.243   0.245   0.245   0.247   0.242   0.248   0.247   0.241   0.238   0.241   0.246   0.246   0.248   0.243   0.238   0.232   0.237   0.246   0.248   0.247   0.243   0.253   0.250   0.247   0.235   0.237   0.232   0.237   0.244   0.244   0.236   0.237   0.235   0.236   0.241   0.242   0.244   0.240   0.234   0.240   0.242   0.242   0.246   0.248   0.237   0.239   0.240   0.236   0.231   0.237   0.235   0.237   0.239   0.245   0.234   0.235   0.233   0.232   0.235   0.232   0.245   0.243   0.243   0.230   0.231   0.233   0.238   0.237   0.238   0.239   0.239   0.239   0.247   0.240   0.242   0.246   0.248   0.243   0.229   0.235   0.237   0.242   0.234   0.241   0.242   0.244   0.249   0.245   0.236   0.238   0.234   0.235   0.238   0.224   0.236   0.239   0.244   0.247   0.237   0.239   0.241   0.231   0.238   0.241   0.243   0.239   0.234   0.233   0.233   0.247   0.242   0.248   0.244   0.238   0.242   0.240   0.229   0.222   0.229   0.226   0.234   0.237   0.242   0.238   0.239   0.232   0.235   0.238   0.240   0.240   0.240   0.233   0.237   0.248   0.236   0.240   0.239   0.233   0.240   0.234   0.238   0.235   0.243   0.241   0.228   0.227   0.231   0.228   0.224   0.227   0.231   0.228   0.230   0.232   0.230   0.231   0.234   0.241   0.241   0.242   0.244   0.244   0.236   0.241   0.248   0.251   0.250   0.252   0.245   0.244   0.246   0.251
    19.60    0.241   0.242   0.241   0.239   0.233   0.240   0.248   0.252   0.254   0.245   0.245   0.240   0.238   0.243   0.227   0.240   0.243   0.239   0.234   0.241   0.243   0.242   0.249   0.253   0.245   0.242   0.237   0.246   0.250   0.245   0.247   0.246   0.251   0.252   0.243   0.240   0.232   0.244   0.251   0.248   0.241   0.245   0.250   0.251   0.245   0.232   0.233   0.232   0.232   0.242   0.234   0.241   0.242   0.233   0.240   0.240   0.247   0.251   0.239   0.240   0.244   0.241   0.243   0.241   0.244   0.246   0.239   0.241   0.235   0.236   0.240   0.241   0.235   0.245   0.241   0.240   0.241   0.234   0.237   0.239   0.236   0.248   0.247   0.236   0.240   0.236   0.237   0.239   0.237   0.234   0.232   0.237   0.236   0.243   0.238   0.246   0.241   0.240   0.229   0.236   0.235   0.236   0.240   0.244   0.237   0.243   0.245   0.247   0.243   0.238   0.229   0.234   0.242   0.235   0.235   0.233   0.240   0.238   0.242   0.243   0.245   0.244   0.245   0.240   0.236   0.238   0.243   0.242   0.246   0.235   0.243   0.237   0.243   0.246   0.238   0.234   0.236   0.231   0.225   0.231   0.231   0.245   0.237   0.240   0.241   0.238   0.232   0.241   0.239   0.236   0.232   0.233   0.235   0.239   0.232   0.232   0.239   0.234   0.241   0.238   0.239   0.235   0.245   0.240   0.232   0.228   0.232   0.231   0.225   0.224   0.231   0.229   0.227   0.226   0.234   0.231   0.234   0.241   0.240   0.241   0.241   0.240   0.235   0.243   0.241   0.249   0.240   0.241   0.246   0.240   0.237   0.243   0.243
    10.30    0.229   0.243   0.244   0.244   0.246   0.243   0.244   0.255   0.257   0.252   0.241   0.239   0.238   0.241   0.242   0.231   0.237   0.230   0.234   0.246   0.241   0.238   0.239   0.243   0.249   0.249   0.243   0.246   0.252   0.247   0.243   0.244   0.248   0.243   0.245   0.241   0.240   0.249   0.245   0.247   0.252   0.248   0.250   0.247   0.241   0.244   0.236   0.237   0.234   0.236   0.242   0.239   0.236   0.235   0.237   0.246   0.246   0.238   0.247   0.241   0.244   0.242   0.235   0.243   0.257   0.245   0.233   0.239   0.239   0.234   0.235   0.229   0.232   0.236   0.236   0.233   0.233   0.232   0.234   0.239   0.241   0.247   0.246   0.240   0.249   0.241   0.236   0.232   0.237   0.231   0.229   0.237   0.246   0.250   0.249   0.250   0.244   0.244   0.239   0.237   0.229   0.238   0.241   0.238   0.237   0.238   0.252   0.255   0.250   0.247   0.244   0.236   0.232   0.237   0.230   0.235   0.237   0.229   0.232   0.236   0.240   0.251   0.251   0.244   0.242   0.242   0.250   0.242   0.239   0.240   0.241   0.243   0.242   0.234   0.235   0.237   0.236   0.237   0.236   0.235   0.244   0.233   0.235   0.238   0.232   0.238   0.241   0.234   0.236   0.231   0.229   0.233   0.228   0.237   0.245   0.232   0.235   0.234   0.235   0.243   0.234   0.238   0.244   0.241   0.239   0.241   0.229   0.227   0.229   0.234   0.237   0.230   0.229   0.228   0.238   0.232   0.242   0.237   0.237   0.237   0.232   0.232   0.239   0.238   0.238   0.243   0.245   0.243   0.246   0.246   0.241   0.242   0.241
     1.00    0.237   0.240   0.245   0.241   0.237   0.242   0.245   0.249   0.250   0.248   0.252   0.241   0.239   0.242   0.236   0.233   0.236   0.240   0.247   0.247   0.239   0.237   0.238   0.246   0.254   0.246   0.244   0.250   0.249   0.256   0.244   0.243   0.239   0.237   0.245   0.247   0.242   0.245   0.246   0.245   0.254   0.245   0.249   0.245   0.244   0.248   0.241   0.236   0.235   0.236   0.237   0.240   0.239   0.238   0.249   0.249   0.247   0.245   0.251   0.243   0.241   0.240   0.237   0.244   0.249   0.243   0.238   0.236   0.233   0.230   0.233   0.231   0.232   0.233   0.238   0.234   0.238   0.240   0.230   0.235   0.238   0.231   0.244   0.244   0.248   0.241   0.237   0.228   0.224   0.236   0.231   0.239   0.238   0.243   0.243   0.249   0.234   0.231   0.239   0.235   0.228   0.231   0.235   0.243   0.231   0.240   0.251   0.252   0.248   0.242   0.253   0.238   0.238   0.240   0.239   0.237   0.237   0.240   0.237   0.243   0.237   0.243   0.251   0.246   0.247   0.239   0.245   0.237   0.240   0.246   0.234   0.240   0.238   0.242   0.232   0.238   0.229   0.233   0.234   0.229   0.243   0.238   0.238   0.236   0.231   0.235   0.240   0.238   0.232   0.231   0.235   0.233   0.227   0.235   0.239   0.231   0.225   0.232   0.229   0.233   0.228   0.236   0.234   0.236   0.236   0.240   0.225   0.228   0.232   0.235   0.241   0.235   0.228   0.230   0.238   0.232   0.235   0.233   0.229   0.232   0.227   0.234   0.234   0.233   0.236   0.237   0.249   0.246   0.242   0.241   0.242   0.242   0.245

   Mean standard deviation across all grid points:
      u component:    0.489 m/s
      v component:    0.385 m/s
      w component:    0.237 m/s


U-component (X) statistics from the interpolated hub point:

   Mean =   9.7063 m/s
   TI   =   4.8010 %


Processing complete.  2.15149E+05 CPU seconds used.
