
This summary file was generated by TurbSim (from OpenFAST-v3.5.3) on 20-Apr-2025 at 11:09:30.


Runtime Options:

**********  Random seed #1
    RANLUX  Type of random number generator
         F  Output binary HH turbulence parameters?
         F  Output formatted turbulence parameters?
         F  Output AeroDyn HH files?
         T  Output AeroDyn FF files?
         F  Output BLADED FF files?
         F  Output tower data?
         F  Output HAWC FF files?
         F  Output formatted FF files?
         T  Output coherent turbulence time step file?
 0 -  NONE  IEC turbulence models scaled to exact specified standard deviation


Turbine/Model Specifications:

        37  Vertical grid-point matrix dimension
        35  Horizontal grid-point matrix dimension
     0.250  Time step [seconds]
   900.000  Analysis time [seconds]
   900.000  Usable output time [seconds]
    89.350  Hub height [m]
   167.400  Grid height [m]
   158.100  Grid width [m]
     0.000  Vertical flow angle [degrees]
     0.000  Horizontal flow angle [degrees]


Meteorological Boundary Conditions:

    TIMESR  User-input time series spectral model
       N/A  IEC standard
       N/A  IEC turbulence characteristic
       N/A  IEC turbulence type
       N/A  IEC Extreme Turbulence Model (ETM) "c" parameter [m/s]
       PL   Wind profile type
    90.000  Reference height [m]
    10.000  Reference wind speed [m/s]
       N/A  Jet height [m]
     0.120  Power law exponent
     0.030  Surface roughness length [m]


Non-IEC Meteorological Boundary Conditions:

    45.000  Site latitude [degrees]
     0.050  Gradient Richardson number
     0.480  Friction or shear velocity [m/s]
       N/A  Mixing layer depth [m]
       N/A  Mean hub u'w' Reynolds stress
       N/A  Mean hub u'v' Reynolds stress
       N/A  Mean hub v'w' Reynolds stress


Spatial Coherence Models:

       IEC  u-component coherence model
       IEC  v-component coherence model
       IEC  w-component coherence model
(   12.000, 0.353E-03)  u-component coherence parameters
(   12.000, 0.353E-03)  v-component coherence parameters
(   12.000, 0.353E-03)  w-component coherence parameters
       N/A  Coherence exponent


Coherent Turbulence Scaling Parameters:

.\EventData
            Name of the path containing the coherent turbulence data files
       les  Type of coherent turbulence data files
     1.000  Disturbance scale (ratio of wave height to rotor diameter)
     0.500  Fractional location of tower centerline from right
     0.500  Fractional location of hub height from the bottom of the dataset
    30.000  Minimum start time for coherent structures [seconds]


Profiles from User-Defined Time-Series Input:

  Height   Wind Speed   Horizontal Angle   Vertical Angle
   (m)        (m/s)          (deg)              (deg)    
  ------   ----------   ----------------   --------------
   94.00      10.00          -0.63               -0.00


You have requested that the following file(s) be generated:

   /kfs3/scratch/agupta/Projects/RL_Incubator/FinalRuns_Veer/Seed4/./FFSim_Seed4/Cond00_v10.0_PL0.12_TI5.0/Case3_wdirp06/Seed_2/TurbSim/HighT13.bts (AeroDyn/TurbSim full-field wind file)


Turbulence Simulation Scaling Parameter Summary:

   Turbulence model used                            =  User-input time series
   Gradient Richardson number                       =    0.050
   Monin-Obukhov (M-O) z/L parameter                =    0.067
   Monin-Obukhov (M-O) length scale                 = 1340.250 m
   Mean wind speed at hub height                    =    9.991 m/s

   Wind profile type                                =  Power law
   Power law exponent                               =    0.120
   Mean shear across rotor disk                     =    0.019 (m/s)/m
   Assumed rotor diameter                           =  158.100 m
   Surface roughness length                         =    0.030 m

   Nyquist frequency of turbulent wind field        =    2.000 Hz

   Number of time steps in the FFT                  =     3600
   Number of time steps output                      =     3600
   Number of points simulated                       =     1296


Mean Flow Angles:

   Vertical   =   0.0 degrees
   Horizontal =   0.0 degrees

Mean Wind Speed Profile:

   Height    Wind Speed   Horizontal Angle  Vertical Angle  U-comp (X)   V-comp (Y)   W-comp (Z)
     (m)        (m/s)         (degrees)       (degrees)       (m/s)        (m/s)        (m/s)   
   ------    ----------   ----------------  --------------  ----------   ----------   ----------
    168.4       10.78            0.00            0.00         10.78         0.00         0.00
    163.7       10.74            0.00            0.00         10.74         0.00         0.00
    159.1       10.71            0.00            0.00         10.71         0.00         0.00
    154.4       10.67            0.00            0.00         10.67         0.00         0.00
    149.8       10.63            0.00            0.00         10.63         0.00         0.00
    145.1       10.59            0.00            0.00         10.59         0.00         0.00
    140.5       10.55            0.00            0.00         10.55         0.00         0.00
    135.8       10.51            0.00            0.00         10.51         0.00         0.00
    131.2       10.46            0.00            0.00         10.46         0.00         0.00
    126.5       10.42            0.00            0.00         10.42         0.00         0.00
    121.9       10.37            0.00            0.00         10.37         0.00         0.00
    117.2       10.32            0.00            0.00         10.32         0.00         0.00
    112.6       10.27            0.00            0.00         10.27         0.00         0.00
    107.9       10.22            0.00            0.00         10.22         0.00         0.00
    103.3       10.17            0.00            0.00         10.17         0.00         0.00
     98.6       10.11            0.00            0.00         10.11         0.00         0.00
     94.0       10.05            0.00            0.00         10.05         0.00         0.00
     89.3        9.99            0.00            0.00          9.99         0.00         0.00
     84.7        9.93            0.00            0.00          9.93         0.00         0.00
     80.0        9.86            0.00            0.00          9.86         0.00         0.00
     75.4        9.79            0.00            0.00          9.79         0.00         0.00
     70.7        9.72            0.00            0.00          9.72         0.00         0.00
     66.1        9.64            0.00            0.00          9.64         0.00         0.00
     61.4        9.55            0.00            0.00          9.55         0.00         0.00
     56.8        9.46            0.00            0.00          9.46         0.00         0.00
     52.1        9.37            0.00            0.00          9.37         0.00         0.00
     47.5        9.26            0.00            0.00          9.26         0.00         0.00
     42.8        9.15            0.00            0.00          9.15         0.00         0.00
     38.2        9.02            0.00            0.00          9.02         0.00         0.00
     33.5        8.88            0.00            0.00          8.88         0.00         0.00
     28.9        8.73            0.00            0.00          8.73         0.00         0.00
     24.2        8.54            0.00            0.00          8.54         0.00         0.00
     19.6        8.33            0.00            0.00          8.33         0.00         0.00
     14.9        8.06            0.00            0.00          8.06         0.00         0.00
     10.3        7.71            0.00            0.00          7.71         0.00         0.00
      5.6        7.17            0.00            0.00          7.17         0.00         0.00
      1.0        5.83            0.00            0.00          5.83         0.00         0.00


Harvested Random Seeds after Generation of the Random Numbers:

     65026800 K 1
            0 K 2


Hub-Height Simulated Turbulence Statistical Summary:

   Type of Wind        Min (m/s)   Mean (m/s)    Max (m/s)  Sigma (m/s)       TI (%)
   ----------------    ---------   ----------    ---------  -----------       ------
   Longitudinal (u)         8.40         9.99        11.53        0.586        5.864
   Lateral (v)             -1.38        -0.00         1.07        0.341        3.416
   Vertical (w)            -0.82         0.00         0.90        0.249        2.497
   U component              8.40         9.99        11.53        0.586        5.864
   V component             -1.38        -0.00         1.07        0.341        3.416
   W component             -0.82         0.00         0.90        0.249        2.497
   Horizontal (U&V)         8.41        10.00        11.53        0.585        5.854
   Total                    8.41        10.00        11.53        0.585        5.849

                       Min Reynolds     Mean Reynolds    Max Reynolds    Correlation
   Product             Stress (m/s)^2   Stress (m/s)^2   Stress (m/s)^2  Coefficient
   ----------------    --------------   --------------   --------------  -----------
   u'w'                     -0.816             0.006             0.739         0.043
   u'v'                     -1.365            -0.020             0.955        -0.102
   v'w'                     -0.468            -0.011             0.404        -0.129


   Friction Velocity (Ustar)  =      0.080 m/s
   Maximum Instantaneous TKE  =      1.499 (m/s)^2
   Maximum Instantaneous CTKE =      0.743 (m/s)^2


Grid Point Variance Summary:

   Y-coord  -79.05  -74.40  -69.75  -65.10  -60.45  -55.80  -51.15  -46.50  -41.85  -37.20  -32.55  -27.90  -23.25  -18.60  -13.95   -9.30   -4.65    0.00    4.65    9.30   13.95   18.60   23.25   27.90   32.55   37.20   41.85   46.50   51.15   55.80   60.45   65.10   69.75   74.40   79.05

   Height   Standard deviation at grid points for the u component:
   168.40    0.577   0.605   0.644   0.660   0.596   0.588   0.547   0.488   0.447   0.462   0.510   0.526   0.505   0.492   0.424   0.417   0.420   0.460   0.485   0.566   0.546   0.624   0.583   0.607   0.612   0.671   0.725   0.713   0.666   0.650   0.693   0.612   0.538   0.491   0.549
   163.75    0.599   0.632   0.633   0.645   0.596   0.553   0.586   0.501   0.474   0.507   0.513   0.463   0.480   0.461   0.417   0.399   0.424   0.412   0.453   0.522   0.532   0.568   0.601   0.572   0.584   0.614   0.659   0.690   0.703   0.696   0.651   0.634   0.589   0.554   0.528
   159.10    0.582   0.594   0.627   0.594   0.636   0.588   0.595   0.517   0.516   0.490   0.480   0.487   0.486   0.426   0.394   0.379   0.368   0.416   0.442   0.456   0.536   0.590   0.602   0.571   0.597   0.621   0.616   0.661   0.687   0.650   0.577   0.573   0.549   0.529   0.556
   154.45    0.622   0.660   0.639   0.615   0.664   0.633   0.558   0.525   0.560   0.559   0.524   0.486   0.494   0.446   0.420   0.427   0.441   0.427   0.390   0.428   0.513   0.522   0.527   0.535   0.575   0.584   0.595   0.598   0.627   0.601   0.561   0.497   0.500   0.438   0.484
   149.80    0.636   0.690   0.706   0.695   0.657   0.619   0.615   0.553   0.531   0.559   0.597   0.538   0.487   0.470   0.460   0.489   0.492   0.446   0.400   0.456   0.509   0.504   0.485   0.490   0.524   0.543   0.503   0.536   0.545   0.567   0.553   0.486   0.452   0.468   0.456
   145.15    0.682   0.668   0.695   0.667   0.644   0.663   0.652   0.575   0.572   0.556   0.570   0.585   0.533   0.556   0.527   0.509   0.477   0.455   0.447   0.450   0.492   0.458   0.426   0.488   0.469   0.515   0.518   0.548   0.514   0.536   0.534   0.476   0.466   0.456   0.447
   140.50    0.624   0.635   0.620   0.634   0.681   0.694   0.647   0.576   0.586   0.596   0.592   0.606   0.555   0.568   0.528   0.501   0.475   0.516   0.514   0.525   0.507   0.489   0.481   0.473   0.522   0.525   0.507   0.511   0.501   0.544   0.556   0.534   0.481   0.504   0.428
   135.85    0.592   0.596   0.598   0.597   0.620   0.683   0.664   0.610   0.575   0.561   0.563   0.581   0.583   0.587   0.577   0.513   0.505   0.526   0.515   0.568   0.610   0.564   0.544   0.605   0.549   0.508   0.496   0.485   0.463   0.498   0.519   0.516   0.549   0.478   0.450
   131.20    0.642   0.599   0.584   0.568   0.617   0.648   0.655   0.665   0.570   0.543   0.567   0.568   0.504   0.564   0.522   0.478   0.510   0.528   0.479   0.542   0.575   0.593   0.597   0.619   0.527   0.552   0.528   0.505   0.489   0.517   0.474   0.476   0.518   0.483   0.478
   126.55    0.656   0.622   0.592   0.591   0.594   0.592   0.611   0.616   0.609   0.523   0.516   0.551   0.516   0.547   0.489   0.514   0.517   0.496   0.497   0.532   0.521   0.543   0.580   0.569   0.539   0.503   0.480   0.538   0.508   0.474   0.507   0.546   0.541   0.493   0.453
   121.90    0.618   0.625   0.571   0.542   0.507   0.567   0.562   0.605   0.631   0.545   0.498   0.507   0.504   0.497   0.475   0.504   0.541   0.501   0.514   0.546   0.504   0.476   0.535   0.526   0.512   0.493   0.520   0.476   0.497   0.459   0.532   0.561   0.537   0.485   0.496
   117.25    0.656   0.625   0.599   0.592   0.536   0.541   0.590   0.618   0.608   0.567   0.573   0.552   0.499   0.471   0.483   0.475   0.490   0.509   0.534   0.543   0.459   0.497   0.507   0.499   0.530   0.483   0.487   0.449   0.434   0.485   0.495   0.528   0.527   0.527   0.485
   112.60    0.620   0.607   0.528   0.541   0.502   0.544   0.553   0.567   0.566   0.562   0.562   0.503   0.520   0.526   0.476   0.511   0.466   0.499   0.520   0.478   0.454   0.483   0.465   0.453   0.513   0.499   0.459   0.454   0.470   0.432   0.476   0.520   0.552   0.501   0.527
   107.95    0.580   0.598   0.531   0.501   0.523   0.523   0.527   0.545   0.597   0.601   0.562   0.523   0.501   0.507   0.529   0.531   0.483   0.470   0.462   0.468   0.482   0.476   0.453   0.460   0.506   0.538   0.509   0.503   0.476   0.458   0.481   0.526   0.570   0.573   0.486
   103.30    0.611   0.586   0.555   0.583   0.545   0.537   0.591   0.566   0.595   0.577   0.596   0.525   0.558   0.494   0.528   0.483   0.508   0.510   0.457   0.455   0.456   0.487   0.501   0.455   0.490   0.506   0.459   0.477   0.475   0.449   0.475   0.491   0.528   0.543   0.471
    98.65    0.623   0.597   0.589   0.571   0.572   0.572   0.594   0.569   0.596   0.638   0.563   0.586   0.575   0.520   0.486   0.519   0.472   0.512   0.463   0.482   0.475   0.423   0.469   0.433   0.467   0.476   0.437   0.424   0.422   0.472   0.452   0.481   0.491   0.492   0.425
    94.00    0.595   0.542   0.568   0.565   0.618   0.647   0.586   0.548   0.564   0.628   0.566   0.592   0.617   0.566   0.551   0.548   0.574   0.527   0.493   0.499   0.446   0.438   0.437   0.448   0.444   0.430   0.455   0.410   0.452   0.494   0.479   0.494   0.490   0.484   0.466
    89.35    0.552   0.511   0.535   0.520   0.583   0.635   0.585   0.578   0.623   0.672   0.595   0.600   0.654   0.598   0.579   0.620   0.608   0.586   0.515   0.507   0.460   0.506   0.448   0.406   0.437   0.411   0.432   0.417   0.430   0.487   0.536   0.530   0.532   0.491   0.512
    84.70    0.509   0.478   0.510   0.522   0.576   0.612   0.606   0.569   0.623   0.656   0.606   0.626   0.657   0.690   0.645   0.618   0.609   0.596   0.523   0.543   0.486   0.492   0.502   0.448   0.425   0.465   0.432   0.419   0.473   0.526   0.534   0.551   0.508   0.497   0.523
    80.05    0.567   0.527   0.521   0.519   0.564   0.610   0.679   0.628   0.626   0.629   0.637   0.612   0.622   0.679   0.674   0.702   0.682   0.635   0.537   0.554   0.498   0.489   0.507   0.519   0.489   0.500   0.468   0.488   0.463   0.493   0.544   0.547   0.530   0.507   0.506
    75.40    0.597   0.571   0.519   0.580   0.560   0.617   0.655   0.650   0.674   0.672   0.671   0.652   0.630   0.666   0.697   0.702   0.650   0.588   0.568   0.557   0.524   0.582   0.589   0.603   0.563   0.520   0.507   0.506   0.510   0.499   0.546   0.557   0.490   0.497   0.519
    70.75    0.671   0.634   0.558   0.535   0.578   0.615   0.642   0.615   0.663   0.609   0.641   0.603   0.646   0.677   0.680   0.659   0.655   0.630   0.608   0.564   0.540   0.559   0.568   0.547   0.596   0.564   0.551   0.610   0.616   0.594   0.591   0.563   0.522   0.511   0.544
    66.10    0.674   0.663   0.568   0.574   0.561   0.577   0.619   0.592   0.651   0.594   0.604   0.606   0.649   0.664   0.596   0.623   0.609   0.619   0.518   0.492   0.525   0.511   0.544   0.542   0.591   0.575   0.589   0.631   0.675   0.646   0.683   0.616   0.568   0.551   0.556
    61.45    0.636   0.644   0.612   0.567   0.606   0.568   0.607   0.645   0.620   0.592   0.618   0.644   0.650   0.621   0.602   0.578   0.587   0.593   0.570   0.545   0.546   0.534   0.602   0.580   0.560   0.598   0.661   0.620   0.638   0.694   0.647   0.667   0.606   0.584   0.562
    56.80    0.677   0.639   0.678   0.647   0.629   0.585   0.558   0.635   0.639   0.617   0.632   0.594   0.571   0.607   0.575   0.561   0.590   0.634   0.590   0.604   0.613   0.587   0.610   0.610   0.574   0.626   0.648   0.622   0.669   0.682   0.682   0.672   0.588   0.615   0.559
    52.15    0.737   0.675   0.665   0.723   0.677   0.662   0.584   0.643   0.603   0.550   0.606   0.630   0.639   0.602   0.552   0.552   0.578   0.600   0.615   0.614   0.580   0.633   0.628   0.659   0.626   0.669   0.630   0.583   0.649   0.637   0.684   0.646   0.642   0.607   0.581
    47.50    0.702   0.661   0.645   0.686   0.715   0.705   0.604   0.647   0.600   0.568   0.573   0.589   0.618   0.626   0.557   0.584   0.592   0.628   0.604   0.581   0.608   0.620   0.658   0.660   0.628   0.683   0.633   0.606   0.642   0.669   0.676   0.699   0.691   0.673   0.637
    42.85    0.670   0.603   0.649   0.707   0.689   0.630   0.599   0.580   0.641   0.584   0.556   0.612   0.632   0.581   0.579   0.553   0.558   0.610   0.584   0.626   0.654   0.654   0.620   0.646   0.655   0.663   0.654   0.641   0.626   0.650   0.622   0.670   0.679   0.695   0.674
    38.20    0.647   0.621   0.621   0.656   0.676   0.622   0.600   0.609   0.609   0.590   0.589   0.593   0.585   0.541   0.525   0.584   0.573   0.613   0.629   0.596   0.613   0.592   0.604   0.616   0.592   0.600   0.644   0.636   0.658   0.603   0.593   0.621   0.640   0.632   0.657
    33.55    0.640   0.625   0.622   0.635   0.642   0.647   0.613   0.632   0.627   0.573   0.572   0.533   0.520   0.550   0.531   0.581   0.590   0.564   0.591   0.580   0.574   0.509   0.558   0.522   0.595   0.622   0.644   0.654   0.641   0.641   0.579   0.584   0.599   0.623   0.636
    28.90    0.563   0.616   0.651   0.658   0.638   0.583   0.548   0.586   0.637   0.586   0.515   0.496   0.541   0.542   0.517   0.585   0.589   0.602   0.596   0.551   0.507   0.547   0.542   0.503   0.563   0.632   0.605   0.610   0.645   0.612   0.591   0.557   0.599   0.610   0.632
    24.25    0.584   0.562   0.635   0.649   0.643   0.579   0.558   0.584   0.586   0.601   0.523   0.577   0.567   0.553   0.526   0.583   0.593   0.599   0.584   0.546   0.575   0.541   0.587   0.542   0.581   0.610   0.601   0.637   0.634   0.628   0.552   0.585   0.592   0.609   0.592
    19.60    0.548   0.608   0.653   0.595   0.590   0.587   0.566   0.529   0.541   0.551   0.486   0.535   0.523   0.530   0.565   0.594   0.573   0.525   0.535   0.570   0.563   0.564   0.581   0.552   0.574   0.597   0.569   0.618   0.621   0.571   0.560   0.565   0.619   0.595   0.634
    14.95    0.564   0.624   0.655   0.630   0.634   0.582   0.536   0.565   0.504   0.500   0.490   0.532   0.542   0.557   0.534   0.582   0.550   0.534   0.583   0.613   0.598   0.619   0.535   0.577   0.565   0.624   0.627   0.602   0.585   0.613   0.563   0.606   0.596   0.658   0.671
    10.30    0.617   0.620   0.619   0.604   0.628   0.580   0.547   0.568   0.566   0.541   0.530   0.581   0.532   0.545   0.530   0.605   0.562   0.511   0.553   0.597   0.647   0.659   0.568   0.548   0.590   0.667   0.613   0.625   0.619   0.599   0.595   0.642   0.652   0.638   0.646
     5.65    0.649   0.609   0.596   0.609   0.602   0.601   0.545   0.559   0.563   0.593   0.583   0.597   0.575   0.596   0.561   0.583   0.604   0.553   0.558   0.549   0.617   0.637   0.561   0.545   0.618   0.654   0.659   0.692   0.695   0.622   0.617   0.688   0.636   0.602   0.615
     1.00    0.630   0.589   0.627   0.639   0.607   0.594   0.545   0.584   0.550   0.546   0.584   0.578   0.614   0.558   0.595   0.605   0.573   0.559   0.512   0.551   0.604   0.581   0.554   0.553   0.602   0.631   0.671   0.733   0.670   0.615   0.636   0.694   0.636   0.630   0.609

   Height   Standard deviation at grid points for the v component:
   168.40    0.381   0.365   0.377   0.382   0.402   0.391   0.400   0.378   0.374   0.396   0.388   0.368   0.359   0.362   0.351   0.344   0.339   0.358   0.366   0.367   0.383   0.349   0.365   0.356   0.353   0.359   0.359   0.357   0.350   0.333   0.361   0.347   0.353   0.356   0.325
   163.75    0.361   0.355   0.385   0.397   0.391   0.387   0.365   0.379   0.410   0.398   0.394   0.387   0.367   0.363   0.346   0.339   0.340   0.341   0.357   0.352   0.370   0.362   0.348   0.338   0.341   0.341   0.341   0.342   0.333   0.340   0.346   0.339   0.335   0.333   0.332
   159.10    0.363   0.366   0.386   0.408   0.391   0.393   0.387   0.387   0.405   0.412   0.412   0.380   0.359   0.366   0.371   0.355   0.359   0.347   0.341   0.355   0.356   0.348   0.343   0.342   0.355   0.330   0.343   0.348   0.335   0.330   0.326   0.325   0.327   0.338   0.339
   154.45    0.353   0.359   0.384   0.385   0.396   0.390   0.398   0.416   0.402   0.412   0.406   0.394   0.375   0.370   0.367   0.356   0.355   0.353   0.344   0.352   0.346   0.331   0.335   0.346   0.348   0.347   0.346   0.338   0.336   0.327   0.324   0.329   0.331   0.327   0.342
   149.80    0.346   0.341   0.377   0.376   0.386   0.381   0.397   0.402   0.380   0.400   0.397   0.397   0.375   0.369   0.358   0.351   0.341   0.333   0.335   0.337   0.322   0.319   0.328   0.327   0.330   0.341   0.355   0.337   0.344   0.329   0.328   0.324   0.330   0.348   0.353
   145.15    0.365   0.362   0.384   0.384   0.374   0.361   0.360   0.386   0.387   0.396   0.396   0.380   0.369   0.351   0.377   0.341   0.337   0.339   0.333   0.322   0.310   0.323   0.327   0.346   0.328   0.335   0.343   0.336   0.339   0.344   0.330   0.330   0.343   0.352   0.357
   140.50    0.370   0.372   0.376   0.372   0.373   0.378   0.388   0.383   0.377   0.360   0.380   0.381   0.359   0.340   0.346   0.347   0.347   0.339   0.325   0.319   0.316   0.329   0.346   0.340   0.327   0.345   0.345   0.342   0.340   0.355   0.329   0.338   0.342   0.351   0.363
   135.85    0.399   0.389   0.365   0.377   0.377   0.375   0.378   0.388   0.380   0.362   0.371   0.359   0.351   0.333   0.344   0.346   0.330   0.349   0.318   0.316   0.323   0.327   0.336   0.345   0.340   0.349   0.341   0.355   0.361   0.348   0.339   0.330   0.340   0.346   0.354
   131.20    0.391   0.376   0.371   0.369   0.371   0.361   0.361   0.371   0.361   0.354   0.349   0.340   0.330   0.336   0.341   0.344   0.351   0.368   0.334   0.334   0.347   0.353   0.335   0.344   0.336   0.333   0.332   0.350   0.342   0.338   0.333   0.324   0.334   0.343   0.335
   126.55    0.365   0.383   0.366   0.368   0.348   0.377   0.363   0.362   0.344   0.347   0.340   0.326   0.324   0.339   0.333   0.327   0.351   0.361   0.332   0.342   0.346   0.335   0.351   0.365   0.341   0.334   0.347   0.344   0.342   0.347   0.348   0.344   0.339   0.315   0.326
   121.90    0.391   0.397   0.377   0.368   0.348   0.370   0.378   0.358   0.365   0.339   0.334   0.332   0.330   0.341   0.351   0.343   0.333   0.352   0.359   0.369   0.362   0.356   0.366   0.354   0.345   0.338   0.351   0.336   0.338   0.351   0.353   0.328   0.344   0.331   0.332
   117.25    0.371   0.376   0.359   0.365   0.342   0.346   0.356   0.354   0.354   0.343   0.343   0.359   0.358   0.340   0.354   0.349   0.352   0.359   0.361   0.348   0.349   0.361   0.358   0.345   0.342   0.345   0.346   0.332   0.351   0.344   0.356   0.337   0.333   0.329   0.330
   112.60    0.377   0.367   0.362   0.355   0.330   0.334   0.345   0.342   0.345   0.324   0.344   0.346   0.351   0.347   0.359   0.366   0.347   0.350   0.338   0.355   0.345   0.352   0.356   0.343   0.365   0.352   0.350   0.352   0.344   0.358   0.345   0.339   0.323   0.316   0.322
   107.95    0.362   0.375   0.364   0.349   0.348   0.338   0.342   0.366   0.357   0.334   0.351   0.354   0.331   0.345   0.369   0.371   0.360   0.348   0.343   0.326   0.338   0.334   0.341   0.382   0.390   0.353   0.329   0.344   0.340   0.361   0.348   0.346   0.342   0.339   0.327
   103.30    0.356   0.361   0.374   0.369   0.345   0.362   0.357   0.371   0.356   0.353   0.369   0.364   0.350   0.336   0.353   0.356   0.352   0.378   0.348   0.341   0.328   0.335   0.345   0.369   0.365   0.353   0.354   0.356   0.349   0.350   0.349   0.347   0.329   0.320   0.314
    98.65    0.359   0.356   0.375   0.350   0.341   0.346   0.367   0.356   0.361   0.352   0.357   0.361   0.351   0.329   0.345   0.365   0.359   0.364   0.347   0.328   0.319   0.317   0.338   0.366   0.370   0.373   0.359   0.360   0.357   0.349   0.339   0.337   0.317   0.326   0.323
    94.00    0.369   0.372   0.393   0.368   0.360   0.358   0.362   0.371   0.367   0.354   0.351   0.353   0.358   0.345   0.339   0.352   0.361   0.359   0.356   0.333   0.319   0.321   0.333   0.332   0.344   0.364   0.338   0.335   0.346   0.336   0.322   0.338   0.320   0.324   0.331
    89.35    0.384   0.377   0.361   0.358   0.385   0.362   0.372   0.376   0.377   0.349   0.352   0.348   0.353   0.339   0.340   0.337   0.337   0.341   0.337   0.350   0.327   0.325   0.325   0.342   0.349   0.351   0.328   0.337   0.333   0.330   0.332   0.327   0.326   0.334   0.359
    84.70    0.391   0.385   0.370   0.381   0.371   0.352   0.364   0.369   0.368   0.317   0.336   0.355   0.334   0.356   0.372   0.362   0.347   0.347   0.336   0.337   0.339   0.327   0.330   0.341   0.362   0.344   0.327   0.326   0.332   0.329   0.313   0.326   0.334   0.351   0.352
    80.05    0.381   0.372   0.360   0.368   0.365   0.360   0.336   0.355   0.369   0.331   0.340   0.343   0.359   0.365   0.366   0.365   0.368   0.368   0.371   0.343   0.331   0.329   0.344   0.349   0.350   0.338   0.339   0.321   0.320   0.322   0.314   0.320   0.347   0.340   0.345
    75.40    0.372   0.368   0.352   0.364   0.366   0.371   0.355   0.346   0.361   0.372   0.378   0.367   0.374   0.354   0.367   0.359   0.354   0.350   0.359   0.353   0.338   0.336   0.334   0.324   0.336   0.348   0.361   0.353   0.338   0.324   0.329   0.342   0.354   0.349   0.352
    70.75    0.365   0.362   0.353   0.360   0.356   0.381   0.368   0.375   0.369   0.371   0.376   0.387   0.383   0.367   0.360   0.359   0.346   0.369   0.361   0.359   0.344   0.340   0.339   0.334   0.318   0.353   0.370   0.342   0.349   0.344   0.344   0.350   0.357   0.382   0.371
    66.10    0.360   0.353   0.369   0.378   0.378   0.384   0.380   0.363   0.374   0.390   0.395   0.386   0.381   0.386   0.375   0.361   0.359   0.355   0.356   0.345   0.343   0.348   0.336   0.335   0.357   0.354   0.352   0.343   0.322   0.352   0.342   0.351   0.364   0.381   0.377
    61.45    0.369   0.367   0.373   0.394   0.391   0.393   0.382   0.365   0.379   0.381   0.366   0.379   0.371   0.387   0.373   0.385   0.359   0.344   0.354   0.339   0.344   0.346   0.343   0.358   0.361   0.347   0.339   0.339   0.329   0.345   0.343   0.341   0.353   0.348   0.355
    56.80    0.379   0.374   0.392   0.424   0.399   0.421   0.400   0.403   0.398   0.398   0.362   0.372   0.375   0.375   0.367   0.360   0.362   0.346   0.344   0.350   0.344   0.349   0.355   0.346   0.354   0.343   0.348   0.338   0.348   0.344   0.333   0.326   0.337   0.340   0.377
    52.15    0.373   0.370   0.420   0.426   0.401   0.407   0.408   0.384   0.378   0.362   0.364   0.367   0.369   0.365   0.352   0.353   0.368   0.350   0.360   0.359   0.360   0.360   0.349   0.360   0.348   0.344   0.345   0.337   0.344   0.351   0.328   0.318   0.307   0.341   0.361
    47.50    0.355   0.397   0.394   0.396   0.401   0.390   0.385   0.366   0.372   0.358   0.364   0.366   0.371   0.363   0.372   0.371   0.359   0.369   0.360   0.347   0.346   0.357   0.367   0.355   0.352   0.349   0.333   0.326   0.341   0.347   0.334   0.316   0.328   0.355   0.363
    42.85    0.381   0.374   0.386   0.382   0.354   0.382   0.397   0.368   0.371   0.360   0.358   0.361   0.373   0.372   0.383   0.363   0.347   0.345   0.358   0.346   0.366   0.376   0.375   0.358   0.353   0.328   0.314   0.320   0.329   0.349   0.330   0.337   0.346   0.345   0.369
    38.20    0.363   0.366   0.376   0.362   0.353   0.375   0.380   0.376   0.368   0.358   0.352   0.357   0.371   0.367   0.381   0.354   0.358   0.353   0.347   0.344   0.338   0.360   0.373   0.358   0.343   0.343   0.324   0.335   0.337   0.345   0.350   0.343   0.365   0.365   0.363
    33.55    0.353   0.341   0.357   0.353   0.353   0.374   0.377   0.382   0.374   0.368   0.354   0.375   0.364   0.356   0.355   0.370   0.366   0.356   0.345   0.357   0.337   0.359   0.355   0.344   0.335   0.348   0.336   0.343   0.328   0.343   0.329   0.334   0.350   0.364   0.376
    28.90    0.357   0.352   0.349   0.359   0.352   0.353   0.379   0.377   0.382   0.387   0.384   0.386   0.379   0.367   0.354   0.376   0.353   0.366   0.350   0.333   0.349   0.355   0.348   0.339   0.346   0.341   0.349   0.342   0.336   0.345   0.348   0.347   0.342   0.368   0.379
    24.25    0.358   0.338   0.355   0.368   0.353   0.364   0.389   0.396   0.407   0.402   0.385   0.380   0.390   0.378   0.364   0.367   0.357   0.346   0.357   0.345   0.357   0.351   0.336   0.339   0.355   0.353   0.355   0.360   0.353   0.346   0.337   0.353   0.338   0.365   0.384
    19.60    0.344   0.358   0.352   0.381   0.383   0.380   0.401   0.399   0.413   0.396   0.401   0.391   0.386   0.366   0.364   0.366   0.360   0.358   0.381   0.371   0.384   0.358   0.364   0.336   0.348   0.351   0.365   0.360   0.342   0.321   0.353   0.349   0.369   0.367   0.376
    14.95    0.364   0.381   0.362   0.378   0.378   0.403   0.409   0.418   0.399   0.406   0.382   0.388   0.387   0.364   0.366   0.386   0.384   0.378   0.386   0.366   0.381   0.370   0.375   0.348   0.338   0.330   0.339   0.341   0.360   0.359   0.359   0.376   0.376   0.374   0.385
    10.30    0.385   0.374   0.373   0.379   0.379   0.418   0.401   0.409   0.414   0.398   0.383   0.352   0.371   0.381   0.383   0.382   0.390   0.391   0.379   0.390   0.380   0.374   0.366   0.363   0.350   0.348   0.359   0.376   0.384   0.372   0.382   0.354   0.374   0.369   0.383
     5.65    0.365   0.377   0.380   0.368   0.369   0.416   0.394   0.388   0.403   0.379   0.369   0.355   0.374   0.371   0.390   0.397   0.406   0.386   0.379   0.366   0.372   0.365   0.357   0.363   0.343   0.352   0.353   0.374   0.395   0.379   0.367   0.366   0.366   0.365   0.371
     1.00    0.375   0.374   0.376   0.367   0.394   0.407   0.401   0.394   0.383   0.373   0.382   0.381   0.381   0.379   0.387   0.404   0.401   0.383   0.389   0.361   0.359   0.358   0.387   0.373   0.373   0.347   0.353   0.371   0.370   0.372   0.337   0.349   0.355   0.370   0.381

   Height   Standard deviation at grid points for the w component:
   168.40    0.266   0.252   0.260   0.268   0.258   0.232   0.222   0.226   0.232   0.239   0.243   0.232   0.234   0.238   0.242   0.236   0.231   0.237   0.247   0.245   0.240   0.242   0.242   0.250   0.247   0.240   0.231   0.233   0.229   0.232   0.238   0.235   0.225   0.226   0.232
   163.75    0.262   0.266   0.265   0.274   0.245   0.240   0.230   0.238   0.229   0.239   0.241   0.225   0.231   0.242   0.241   0.239   0.231   0.255   0.262   0.268   0.274   0.256   0.243   0.242   0.248   0.251   0.241   0.241   0.230   0.233   0.237   0.227   0.236   0.245   0.234
   159.10    0.271   0.283   0.288   0.277   0.242   0.242   0.239   0.251   0.257   0.249   0.240   0.222   0.232   0.243   0.238   0.244   0.232   0.249   0.267   0.280   0.276   0.258   0.260   0.246   0.254   0.260   0.253   0.239   0.239   0.237   0.242   0.240   0.232   0.240   0.237
   154.45    0.273   0.278   0.279   0.264   0.246   0.236   0.242   0.252   0.257   0.252   0.239   0.247   0.228   0.236   0.248   0.252   0.255   0.268   0.277   0.267   0.283   0.264   0.254   0.257   0.253   0.251   0.247   0.247   0.244   0.231   0.242   0.235   0.231   0.242   0.243
   149.80    0.253   0.262   0.266   0.248   0.243   0.231   0.242   0.243   0.257   0.252   0.247   0.246   0.236   0.234   0.250   0.251   0.261   0.270   0.261   0.262   0.277   0.275   0.267   0.254   0.247   0.258   0.249   0.252   0.239   0.241   0.245   0.247   0.230   0.238   0.229
   145.15    0.251   0.253   0.255   0.261   0.268   0.242   0.238   0.235   0.248   0.253   0.242   0.247   0.252   0.253   0.259   0.274   0.279   0.284   0.262   0.270   0.258   0.270   0.262   0.250   0.251   0.238   0.245   0.242   0.247   0.242   0.252   0.257   0.237   0.238   0.248
   140.50    0.250   0.247   0.251   0.273   0.267   0.245   0.239   0.237   0.249   0.252   0.245   0.241   0.254   0.252   0.260   0.268   0.277   0.274   0.271   0.274   0.261   0.264   0.255   0.250   0.244   0.245   0.239   0.246   0.239   0.237   0.248   0.247   0.242   0.243   0.248
   135.85    0.244   0.260   0.270   0.282   0.268   0.246   0.238   0.239   0.245   0.253   0.253   0.253   0.256   0.252   0.252   0.253   0.278   0.264   0.271   0.266   0.262   0.248   0.247   0.248   0.242   0.241   0.247   0.245   0.245   0.253   0.242   0.247   0.239   0.244   0.243
   131.20    0.258   0.269   0.276   0.277   0.284   0.273   0.255   0.243   0.234   0.251   0.255   0.262   0.264   0.262   0.252   0.253   0.283   0.272   0.262   0.263   0.261   0.260   0.243   0.247   0.248   0.244   0.252   0.254   0.272   0.259   0.255   0.250   0.250   0.251   0.247
   126.55    0.256   0.269   0.272   0.277   0.281   0.266   0.270   0.262   0.236   0.234   0.250   0.255   0.264   0.265   0.256   0.259   0.271   0.266   0.261   0.251   0.272   0.272   0.252   0.253   0.245   0.253   0.256   0.265   0.272   0.254   0.262   0.259   0.256   0.257   0.249
   121.90    0.276   0.262   0.263   0.264   0.274   0.267   0.270   0.268   0.243   0.239   0.234   0.253   0.260   0.254   0.254   0.254   0.262   0.258   0.260   0.258   0.266   0.277   0.258   0.254   0.269   0.255   0.259   0.261   0.272   0.260   0.255   0.253   0.252   0.258   0.247
   117.25    0.272   0.272   0.260   0.253   0.268   0.270   0.263   0.257   0.235   0.228   0.235   0.243   0.243   0.245   0.252   0.254   0.254   0.266   0.247   0.258   0.258   0.257   0.262   0.267   0.265   0.261   0.256   0.266   0.267   0.261   0.252   0.245   0.252   0.260   0.253
   112.60    0.269   0.268   0.273   0.260   0.275   0.261   0.250   0.248   0.236   0.235   0.239   0.244   0.254   0.250   0.254   0.240   0.248   0.260   0.257   0.256   0.263   0.268   0.253   0.260   0.261   0.257   0.253   0.262   0.251   0.249   0.245   0.241   0.258   0.268   0.276
   107.95    0.259   0.257   0.263   0.269   0.271   0.255   0.251   0.253   0.241   0.242   0.243   0.241   0.241   0.253   0.241   0.243   0.243   0.252   0.262   0.254   0.258   0.253   0.267   0.250   0.255   0.235   0.241   0.246   0.248   0.250   0.246   0.249   0.256   0.271   0.271
   103.30    0.252   0.244   0.269   0.260   0.263   0.260   0.265   0.254   0.243   0.238   0.231   0.242   0.236   0.248   0.237   0.246   0.245   0.251   0.252   0.245   0.251   0.267   0.258   0.260   0.262   0.253   0.241   0.236   0.239   0.242   0.255   0.264   0.261   0.256   0.259
    98.65    0.252   0.258   0.256   0.270   0.256   0.251   0.253   0.252   0.245   0.238   0.239   0.249   0.242   0.248   0.243   0.238   0.233   0.241   0.250   0.252   0.262   0.263   0.263   0.273   0.263   0.263   0.249   0.244   0.238   0.249   0.258   0.263   0.269   0.254   0.247
    94.00    0.250   0.265   0.274   0.267   0.255   0.250   0.256   0.253   0.240   0.238   0.240   0.235   0.248   0.245   0.241   0.234   0.238   0.249   0.249   0.249   0.249   0.258   0.275   0.269   0.261   0.248   0.250   0.248   0.241   0.249   0.244   0.249   0.254   0.247   0.248
    89.35    0.263   0.263   0.273   0.260   0.253   0.239   0.248   0.250   0.240   0.241   0.243   0.236   0.244   0.251   0.242   0.232   0.250   0.249   0.246   0.246   0.254   0.255   0.252   0.259   0.259   0.258   0.241   0.245   0.253   0.254   0.254   0.250   0.249   0.251   0.255
    84.70    0.254   0.253   0.259   0.259   0.249   0.248   0.247   0.239   0.246   0.244   0.249   0.248   0.246   0.238   0.242   0.237   0.248   0.244   0.244   0.257   0.257   0.247   0.233   0.253   0.253   0.248   0.243   0.239   0.251   0.255   0.243   0.243   0.237   0.240   0.252
    80.05    0.239   0.244   0.250   0.247   0.255   0.240   0.238   0.236   0.240   0.249   0.238   0.239   0.239   0.231   0.235   0.248   0.255   0.244   0.246   0.248   0.250   0.241   0.250   0.253   0.244   0.242   0.251   0.246   0.250   0.257   0.239   0.243   0.228   0.237   0.248
    75.40    0.241   0.243   0.243   0.245   0.252   0.246   0.243   0.233   0.239   0.244   0.231   0.238   0.234   0.241   0.243   0.242   0.236   0.240   0.244   0.248   0.245   0.251   0.252   0.254   0.246   0.244   0.236   0.232   0.243   0.246   0.242   0.241   0.237   0.237   0.239
    70.75    0.239   0.240   0.244   0.247   0.252   0.246   0.243   0.234   0.245   0.249   0.239   0.235   0.233   0.244   0.239   0.241   0.245   0.240   0.247   0.247   0.246   0.244   0.246   0.250   0.245   0.237   0.245   0.237   0.235   0.245   0.246   0.251   0.242   0.240   0.235
    66.10    0.233   0.242   0.238   0.246   0.250   0.236   0.243   0.240   0.247   0.251   0.231   0.223   0.234   0.241   0.239   0.240   0.238   0.232   0.240   0.243   0.231   0.239   0.240   0.243   0.242   0.241   0.238   0.239   0.226   0.231   0.236   0.234   0.244   0.240   0.239
    61.45    0.234   0.239   0.237   0.256   0.252   0.243   0.242   0.244   0.243   0.247   0.241   0.231   0.235   0.245   0.237   0.242   0.238   0.238   0.245   0.245   0.232   0.241   0.245   0.243   0.244   0.239   0.241   0.240   0.227   0.239   0.232   0.251   0.247   0.240   0.245
    56.80    0.242   0.227   0.236   0.242   0.244   0.244   0.251   0.247   0.251   0.235   0.244   0.233   0.230   0.234   0.227   0.240   0.237   0.238   0.240   0.237   0.239   0.242   0.237   0.231   0.237   0.236   0.236   0.243   0.240   0.232   0.232   0.235   0.244   0.240   0.237
    52.15    0.252   0.239   0.241   0.247   0.247   0.240   0.246   0.250   0.254   0.248   0.236   0.238   0.227   0.237   0.235   0.246   0.243   0.238   0.236   0.229   0.231   0.233   0.237   0.229   0.235   0.238   0.239   0.238   0.236   0.231   0.228   0.232   0.234   0.244   0.246
    47.50    0.244   0.247   0.241   0.245   0.250   0.244   0.255   0.252   0.248   0.254   0.245   0.237   0.234   0.228   0.248   0.244   0.239   0.247   0.242   0.220   0.228   0.227   0.234   0.237   0.233   0.233   0.229   0.241   0.234   0.230   0.236   0.234   0.235   0.244   0.252
    42.85    0.242   0.238   0.244   0.245   0.251   0.238   0.234   0.248   0.240   0.251   0.245   0.242   0.233   0.240   0.248   0.242   0.242   0.242   0.242   0.231   0.221   0.228   0.236   0.236   0.230   0.230   0.226   0.244   0.243   0.232   0.235   0.236   0.246   0.260   0.264
    38.20    0.246   0.240   0.240   0.246   0.237   0.232   0.243   0.247   0.242   0.249   0.243   0.238   0.236   0.246   0.250   0.241   0.237   0.242   0.247   0.222   0.233   0.237   0.238   0.234   0.230   0.231   0.235   0.244   0.245   0.241   0.235   0.248   0.246   0.255   0.271
    33.55    0.244   0.234   0.239   0.235   0.237   0.230   0.229   0.230   0.248   0.245   0.238   0.248   0.250   0.251   0.248   0.238   0.225   0.231   0.242   0.237   0.241   0.243   0.244   0.239   0.235   0.240   0.229   0.241   0.239   0.237   0.245   0.249   0.247   0.247   0.269
    28.90    0.246   0.244   0.240   0.232   0.233   0.228   0.226   0.238   0.241   0.245   0.246   0.244   0.255   0.261   0.241   0.232   0.230   0.230   0.238   0.243   0.242   0.251   0.259   0.254   0.241   0.232   0.234   0.238   0.232   0.241   0.246   0.244   0.253   0.260   0.263
    24.25    0.238   0.252   0.237   0.236   0.231   0.233   0.244   0.240   0.238   0.253   0.237   0.248   0.244   0.248   0.244   0.241   0.233   0.231   0.229   0.232   0.246   0.262   0.257   0.259   0.236   0.242   0.233   0.244   0.242   0.238   0.242   0.244   0.255   0.255   0.256
    19.60    0.240   0.238   0.232   0.230   0.235   0.234   0.250   0.237   0.248   0.245   0.245   0.245   0.245   0.257   0.250   0.250   0.241   0.245   0.235   0.236   0.251   0.249   0.252   0.248   0.246   0.243   0.233   0.240   0.241   0.240   0.250   0.258   0.258   0.251   0.260
    14.95    0.244   0.235   0.226   0.235   0.233   0.239   0.244   0.243   0.241   0.238   0.244   0.237   0.243   0.256   0.248   0.244   0.240   0.236   0.242   0.246   0.259   0.259   0.251   0.247   0.243   0.234   0.237   0.244   0.244   0.251   0.253   0.260   0.258   0.258   0.257
    10.30    0.240   0.239   0.235   0.229   0.237   0.243   0.241   0.248   0.239   0.243   0.234   0.247   0.259   0.243   0.241   0.245   0.247   0.237   0.237   0.236   0.251   0.255   0.255   0.255   0.237   0.235   0.243   0.245   0.251   0.266   0.261   0.260   0.254   0.261   0.267
     5.65    0.235   0.238   0.233   0.243   0.255   0.249   0.239   0.239   0.247   0.243   0.228   0.238   0.252   0.251   0.250   0.231   0.239   0.245   0.252   0.247   0.245   0.242   0.251   0.254   0.243   0.237   0.243   0.247   0.253   0.247   0.246   0.243   0.252   0.257   0.265
     1.00    0.246   0.248   0.244   0.250   0.252   0.245   0.245   0.252   0.247   0.239   0.236   0.238   0.237   0.247   0.243   0.245   0.243   0.253   0.250   0.248   0.240   0.237   0.251   0.258   0.245   0.244   0.236   0.231   0.252   0.255   0.247   0.252   0.245   0.259   0.255

   Mean standard deviation across all grid points:
      u component:    0.567 m/s
      v component:    0.358 m/s
      w component:    0.247 m/s


U-component (X) statistics from the interpolated hub point:

   Mean =   9.9913 m/s
   TI   =   5.8645 %


Processing complete.  5967.6 CPU seconds used.
