
This summary file was generated by TurbSim (from OpenFAST-v3.5.3) on 20-Apr-2025 at 11:22:19.


Runtime Options:

**********  Random seed #1
    RANLUX  Type of random number generator
         F  Output binary HH turbulence parameters?
         F  Output formatted turbulence parameters?
         F  Output AeroDyn HH files?
         T  Output AeroDyn FF files?
         F  Output BLADED FF files?
         F  Output tower data?
         F  Output HAWC FF files?
         F  Output formatted FF files?
         T  Output coherent turbulence time step file?
 0 -  NONE  IEC turbulence models scaled to exact specified standard deviation


Turbine/Model Specifications:

        37  Vertical grid-point matrix dimension
        35  Horizontal grid-point matrix dimension
     0.250  Time step [seconds]
   900.000  Analysis time [seconds]
   900.000  Usable output time [seconds]
    89.350  Hub height [m]
   167.400  Grid height [m]
   158.100  Grid width [m]
     0.000  Vertical flow angle [degrees]
     0.000  Horizontal flow angle [degrees]


Meteorological Boundary Conditions:

    TIMESR  User-input time series spectral model
       N/A  IEC standard
       N/A  IEC turbulence characteristic
       N/A  IEC turbulence type
       N/A  IEC Extreme Turbulence Model (ETM) "c" parameter [m/s]
       PL   Wind profile type
    90.000  Reference height [m]
    10.000  Reference wind speed [m/s]
       N/A  Jet height [m]
     0.120  Power law exponent
     0.030  Surface roughness length [m]


Non-IEC Meteorological Boundary Conditions:

    45.000  Site latitude [degrees]
     0.050  Gradient Richardson number
     0.480  Friction or shear velocity [m/s]
       N/A  Mixing layer depth [m]
       N/A  Mean hub u'w' Reynolds stress
       N/A  Mean hub u'v' Reynolds stress
       N/A  Mean hub v'w' Reynolds stress


Spatial Coherence Models:

       IEC  u-component coherence model
       IEC  v-component coherence model
       IEC  w-component coherence model
(   12.000, 0.353E-03)  u-component coherence parameters
(   12.000, 0.353E-03)  v-component coherence parameters
(   12.000, 0.353E-03)  w-component coherence parameters
       N/A  Coherence exponent


Coherent Turbulence Scaling Parameters:

.\EventData
            Name of the path containing the coherent turbulence data files
       dns  Type of coherent turbulence data files
     1.000  Disturbance scale (ratio of wave height to rotor diameter)
     0.500  Fractional location of tower centerline from right
     0.500  Fractional location of hub height from the bottom of the dataset
    30.000  Minimum start time for coherent structures [seconds]


Profiles from User-Defined Time-Series Input:

  Height   Wind Speed   Horizontal Angle   Vertical Angle
   (m)        (m/s)          (deg)              (deg)    
  ------   ----------   ----------------   --------------
   94.00      10.00          -0.63               -0.00


You have requested that the following file(s) be generated:

   /kfs3/scratch/agupta/Projects/RL_Incubator/FinalRuns_Veer/Seed4/./FFSim_Seed4/Cond00_v10.0_PL0.12_TI5.0/Case3_wdirp06/Seed_3/TurbSim/HighT8.bts (AeroDyn/TurbSim full-field wind file)


Turbulence Simulation Scaling Parameter Summary:

   Turbulence model used                            =  User-input time series
   Gradient Richardson number                       =    0.050
   Monin-Obukhov (M-O) z/L parameter                =    0.067
   Monin-Obukhov (M-O) length scale                 = 1340.250 m
   Mean wind speed at hub height                    =    9.991 m/s

   Wind profile type                                =  Power law
   Power law exponent                               =    0.120
   Mean shear across rotor disk                     =    0.019 (m/s)/m
   Assumed rotor diameter                           =  158.100 m
   Surface roughness length                         =    0.030 m

   Nyquist frequency of turbulent wind field        =    2.000 Hz

   Number of time steps in the FFT                  =     3600
   Number of time steps output                      =     3600
   Number of points simulated                       =     1296


Mean Flow Angles:

   Vertical   =   0.0 degrees
   Horizontal =   0.0 degrees

Mean Wind Speed Profile:

   Height    Wind Speed   Horizontal Angle  Vertical Angle  U-comp (X)   V-comp (Y)   W-comp (Z)
     (m)        (m/s)         (degrees)       (degrees)       (m/s)        (m/s)        (m/s)   
   ------    ----------   ----------------  --------------  ----------   ----------   ----------
    168.4       10.78            0.00            0.00         10.78         0.00         0.00
    163.7       10.74            0.00            0.00         10.74         0.00         0.00
    159.1       10.71            0.00            0.00         10.71         0.00         0.00
    154.4       10.67            0.00            0.00         10.67         0.00         0.00
    149.8       10.63            0.00            0.00         10.63         0.00         0.00
    145.1       10.59            0.00            0.00         10.59         0.00         0.00
    140.5       10.55            0.00            0.00         10.55         0.00         0.00
    135.8       10.51            0.00            0.00         10.51         0.00         0.00
    131.2       10.46            0.00            0.00         10.46         0.00         0.00
    126.5       10.42            0.00            0.00         10.42         0.00         0.00
    121.9       10.37            0.00            0.00         10.37         0.00         0.00
    117.2       10.32            0.00            0.00         10.32         0.00         0.00
    112.6       10.27            0.00            0.00         10.27         0.00         0.00
    107.9       10.22            0.00            0.00         10.22         0.00         0.00
    103.3       10.17            0.00            0.00         10.17         0.00         0.00
     98.6       10.11            0.00            0.00         10.11         0.00         0.00
     94.0       10.05            0.00            0.00         10.05         0.00         0.00
     89.3        9.99            0.00            0.00          9.99         0.00         0.00
     84.7        9.93            0.00            0.00          9.93         0.00         0.00
     80.0        9.86            0.00            0.00          9.86         0.00         0.00
     75.4        9.79            0.00            0.00          9.79         0.00         0.00
     70.7        9.72            0.00            0.00          9.72         0.00         0.00
     66.1        9.64            0.00            0.00          9.64         0.00         0.00
     61.4        9.55            0.00            0.00          9.55         0.00         0.00
     56.8        9.46            0.00            0.00          9.46         0.00         0.00
     52.1        9.37            0.00            0.00          9.37         0.00         0.00
     47.5        9.26            0.00            0.00          9.26         0.00         0.00
     42.8        9.15            0.00            0.00          9.15         0.00         0.00
     38.2        9.02            0.00            0.00          9.02         0.00         0.00
     33.5        8.88            0.00            0.00          8.88         0.00         0.00
     28.9        8.73            0.00            0.00          8.73         0.00         0.00
     24.2        8.54            0.00            0.00          8.54         0.00         0.00
     19.6        8.33            0.00            0.00          8.33         0.00         0.00
     14.9        8.06            0.00            0.00          8.06         0.00         0.00
     10.3        7.71            0.00            0.00          7.71         0.00         0.00
      5.6        7.17            0.00            0.00          7.17         0.00         0.00
      1.0        5.83            0.00            0.00          5.83         0.00         0.00


Harvested Random Seeds after Generation of the Random Numbers:

     65026800 K 1
            0 K 2


Hub-Height Simulated Turbulence Statistical Summary:

   Type of Wind        Min (m/s)   Mean (m/s)    Max (m/s)  Sigma (m/s)       TI (%)
   ----------------    ---------   ----------    ---------  -----------       ------
   Longitudinal (u)         8.80         9.99        11.59        0.449        4.498
   Lateral (v)             -1.31        -0.00         1.13        0.362        3.624
   Vertical (w)            -0.84         0.00         1.09        0.254        2.540
   U component              8.80         9.99        11.59        0.449        4.498
   V component             -1.31        -0.00         1.13        0.362        3.624
   W component             -0.84         0.00         1.09        0.254        2.540
   Horizontal (U&V)         8.81        10.00        11.60        0.450        4.498
   Total                    8.81        10.00        11.60        0.450        4.499

                       Min Reynolds     Mean Reynolds    Max Reynolds    Correlation
   Product             Stress (m/s)^2   Stress (m/s)^2   Stress (m/s)^2  Coefficient
   ----------------    --------------   --------------   --------------  -----------
   u'w'                     -0.784            -0.001             0.760        -0.008
   u'v'                     -1.466            -0.006             0.893        -0.039
   v'w'                     -0.633             0.003             0.681         0.029


   Friction Velocity (Ustar)  =      0.031 m/s
   Maximum Instantaneous TKE  =      1.546 (m/s)^2
   Maximum Instantaneous CTKE =      0.793 (m/s)^2


Grid Point Variance Summary:

   Y-coord  -79.05  -74.40  -69.75  -65.10  -60.45  -55.80  -51.15  -46.50  -41.85  -37.20  -32.55  -27.90  -23.25  -18.60  -13.95   -9.30   -4.65    0.00    4.65    9.30   13.95   18.60   23.25   27.90   32.55   37.20   41.85   46.50   51.15   55.80   60.45   65.10   69.75   74.40   79.05

   Height   Standard deviation at grid points for the u component:
   168.40    0.451   0.449   0.437   0.480   0.482   0.460   0.472   0.452   0.440   0.428   0.454   0.476   0.464   0.442   0.440   0.433   0.463   0.449   0.418   0.423   0.416   0.426   0.453   0.464   0.433   0.438   0.458   0.464   0.486   0.457   0.461   0.461   0.490   0.485   0.486
   163.75    0.440   0.471   0.473   0.492   0.463   0.495   0.450   0.444   0.447   0.448   0.433   0.453   0.455   0.453   0.408   0.416   0.436   0.433   0.411   0.428   0.465   0.455   0.472   0.443   0.481   0.460   0.450   0.468   0.488   0.480   0.473   0.446   0.470   0.471   0.464
   159.10    0.463   0.432   0.460   0.473   0.457   0.497   0.471   0.446   0.449   0.452   0.449   0.425   0.480   0.448   0.468   0.425   0.429   0.413   0.412   0.450   0.467   0.484   0.499   0.511   0.449   0.450   0.467   0.445   0.462   0.443   0.467   0.479   0.441   0.467   0.461
   154.45    0.455   0.468   0.455   0.501   0.503   0.512   0.500   0.487   0.447   0.471   0.457   0.458   0.484   0.451   0.453   0.435   0.418   0.433   0.408   0.433   0.459   0.481   0.516   0.465   0.428   0.418   0.443   0.445   0.426   0.436   0.478   0.500   0.461   0.467   0.446
   149.80    0.486   0.496   0.452   0.478   0.480   0.472   0.477   0.452   0.454   0.477   0.461   0.446   0.453   0.460   0.449   0.441   0.440   0.419   0.435   0.423   0.430   0.453   0.464   0.459   0.420   0.398   0.411   0.429   0.419   0.433   0.460   0.468   0.454   0.443   0.448
   145.15    0.525   0.487   0.476   0.497   0.502   0.512   0.498   0.495   0.496   0.488   0.479   0.435   0.446   0.440   0.417   0.427   0.409   0.418   0.411   0.414   0.442   0.445   0.441   0.433   0.417   0.400   0.394   0.398   0.394   0.438   0.451   0.471   0.442   0.442   0.454
   140.50    0.522   0.534   0.537   0.504   0.498   0.498   0.522   0.519   0.499   0.464   0.443   0.426   0.410   0.394   0.388   0.410   0.408   0.440   0.448   0.430   0.466   0.427   0.444   0.420   0.414   0.416   0.404   0.390   0.388   0.457   0.437   0.438   0.460   0.428   0.434
   135.85    0.539   0.512   0.516   0.506   0.482   0.466   0.496   0.473   0.481   0.475   0.474   0.429   0.441   0.399   0.408   0.423   0.467   0.469   0.470   0.452   0.432   0.457   0.454   0.399   0.404   0.431   0.439   0.448   0.433   0.470   0.479   0.459   0.472   0.442   0.447
   131.20    0.515   0.491   0.480   0.433   0.459   0.462   0.489   0.474   0.489   0.488   0.460   0.446   0.401   0.406   0.425   0.454   0.435   0.434   0.434   0.422   0.403   0.417   0.439   0.438   0.439   0.466   0.471   0.464   0.465   0.451   0.446   0.462   0.455   0.450   0.466
   126.55    0.482   0.452   0.454   0.436   0.437   0.474   0.482   0.483   0.488   0.451   0.442   0.419   0.404   0.448   0.444   0.460   0.431   0.396   0.397   0.431   0.427   0.432   0.458   0.467   0.468   0.508   0.498   0.439   0.455   0.446   0.436   0.464   0.443   0.445   0.466
   121.90    0.478   0.474   0.517   0.462   0.478   0.485   0.462   0.457   0.460   0.434   0.435   0.441   0.412   0.437   0.453   0.406   0.399   0.406   0.423   0.420   0.422   0.429   0.441   0.456   0.489   0.514   0.501   0.482   0.462   0.431   0.442   0.464   0.455   0.456   0.465
   117.25    0.524   0.543   0.520   0.506   0.483   0.471   0.498   0.456   0.454   0.429   0.421   0.395   0.428   0.415   0.420   0.429   0.387   0.378   0.384   0.403   0.414   0.410   0.428   0.410   0.479   0.498   0.467   0.478   0.459   0.448   0.459   0.456   0.478   0.458   0.465
   112.60    0.492   0.511   0.513   0.519   0.519   0.502   0.491   0.480   0.475   0.473   0.435   0.437   0.442   0.443   0.422   0.413   0.396   0.381   0.365   0.369   0.400   0.406   0.404   0.416   0.451   0.462   0.447   0.446   0.455   0.472   0.479   0.481   0.454   0.442   0.466
   107.95    0.472   0.489   0.521   0.503   0.524   0.531   0.505   0.470   0.456   0.455   0.446   0.419   0.425   0.425   0.423   0.421   0.403   0.375   0.369   0.377   0.392   0.406   0.407   0.440   0.441   0.450   0.451   0.469   0.484   0.486   0.502   0.460   0.444   0.430   0.432
   103.30    0.455   0.471   0.453   0.511   0.497   0.480   0.457   0.467   0.448   0.435   0.441   0.426   0.415   0.398   0.400   0.418   0.394   0.413   0.405   0.386   0.397   0.398   0.385   0.414   0.437   0.417   0.460   0.463   0.485   0.492   0.470   0.478   0.437   0.415   0.430
    98.65    0.492   0.468   0.475   0.494   0.480   0.441   0.439   0.416   0.426   0.459   0.453   0.438   0.433   0.407   0.379   0.429   0.435   0.464   0.439   0.383   0.405   0.381   0.387   0.409   0.425   0.439   0.472   0.493   0.484   0.487   0.473   0.479   0.494   0.430   0.457
    94.00    0.496   0.497   0.510   0.497   0.486   0.438   0.468   0.470   0.427   0.431   0.424   0.449   0.404   0.414   0.410   0.418   0.447   0.465   0.453   0.424   0.417   0.428   0.405   0.400   0.418   0.427   0.465   0.514   0.492   0.479   0.479   0.457   0.486   0.473   0.488
    89.35    0.492   0.514   0.505   0.491   0.477   0.466   0.524   0.496   0.459   0.420   0.395   0.406   0.421   0.434   0.444   0.460   0.466   0.449   0.454   0.420   0.427   0.427   0.417   0.414   0.423   0.411   0.449   0.469   0.480   0.494   0.472   0.444   0.455   0.478   0.503
    84.70    0.494   0.484   0.466   0.459   0.447   0.457   0.498   0.507   0.463   0.425   0.420   0.399   0.435   0.487   0.449   0.474   0.414   0.468   0.478   0.449   0.427   0.436   0.434   0.412   0.414   0.430   0.451   0.461   0.457   0.488   0.470   0.467   0.485   0.508   0.501
    80.05    0.477   0.483   0.452   0.436   0.438   0.443   0.449   0.479   0.474   0.432   0.470   0.460   0.482   0.516   0.509   0.480   0.433   0.457   0.498   0.461   0.456   0.443   0.412   0.438   0.441   0.442   0.480   0.493   0.481   0.516   0.520   0.497   0.491   0.511   0.489
    75.40    0.494   0.472   0.461   0.457   0.446   0.408   0.427   0.451   0.466   0.472   0.481   0.506   0.482   0.488   0.500   0.485   0.448   0.455   0.493   0.452   0.461   0.465   0.463   0.442   0.439   0.463   0.479   0.492   0.492   0.486   0.505   0.497   0.500   0.521   0.525
    70.75    0.469   0.456   0.450   0.477   0.470   0.431   0.417   0.413   0.437   0.466   0.446   0.477   0.512   0.525   0.518   0.453   0.432   0.450   0.483   0.448   0.480   0.485   0.486   0.437   0.465   0.433   0.468   0.477   0.459   0.481   0.487   0.488   0.517   0.509   0.535
    66.10    0.449   0.454   0.487   0.485   0.487   0.450   0.415   0.441   0.443   0.428   0.470   0.472   0.498   0.506   0.489   0.474   0.448   0.474   0.494   0.499   0.507   0.491   0.479   0.487   0.478   0.477   0.480   0.453   0.464   0.461   0.466   0.498   0.560   0.543   0.515
    61.45    0.470   0.443   0.479   0.452   0.448   0.440   0.417   0.434   0.440   0.434   0.455   0.462   0.492   0.496   0.491   0.474   0.484   0.486   0.481   0.492   0.477   0.499   0.491   0.522   0.473   0.502   0.511   0.467   0.445   0.464   0.498   0.543   0.587   0.554   0.507
    56.80    0.468   0.436   0.463   0.467   0.436   0.451   0.454   0.426   0.451   0.433   0.440   0.446   0.452   0.457   0.449   0.456   0.472   0.470   0.450   0.462   0.497   0.534   0.535   0.549   0.523   0.501   0.545   0.496   0.483   0.462   0.462   0.532   0.590   0.559   0.511
    52.15    0.456   0.438   0.455   0.456   0.456   0.463   0.462   0.490   0.453   0.453   0.442   0.430   0.438   0.441   0.415   0.425   0.442   0.466   0.451   0.467   0.490   0.506   0.525   0.525   0.474   0.507   0.507   0.492   0.460   0.506   0.510   0.521   0.530   0.558   0.502
    47.50    0.441   0.406   0.426   0.450   0.458   0.465   0.486   0.471   0.499   0.456   0.447   0.444   0.443   0.432   0.390   0.427   0.455   0.440   0.449   0.441   0.467   0.482   0.493   0.485   0.497   0.464   0.461   0.449   0.444   0.493   0.517   0.482   0.494   0.520   0.541
    42.85    0.509   0.466   0.480   0.477   0.455   0.454   0.476   0.482   0.469   0.484   0.482   0.466   0.455   0.419   0.428   0.440   0.465   0.435   0.428   0.458   0.447   0.472   0.452   0.502   0.498   0.468   0.425   0.474   0.501   0.495   0.478   0.458   0.473   0.484   0.494
    38.20    0.480   0.495   0.493   0.469   0.475   0.479   0.497   0.488   0.490   0.483   0.470   0.454   0.445   0.453   0.448   0.444   0.478   0.448   0.466   0.420   0.439   0.479   0.466   0.512   0.492   0.474   0.500   0.497   0.477   0.493   0.496   0.477   0.510   0.518   0.478
    33.55    0.496   0.499   0.497   0.485   0.502   0.506   0.498   0.487   0.460   0.495   0.477   0.460   0.466   0.450   0.470   0.466   0.480   0.463   0.486   0.480   0.456   0.480   0.469   0.480   0.494   0.532   0.545   0.513   0.536   0.522   0.513   0.496   0.562   0.509   0.522
    28.90    0.512   0.483   0.470   0.490   0.491   0.492   0.485   0.464   0.479   0.481   0.472   0.475   0.486   0.484   0.473   0.456   0.467   0.466   0.498   0.480   0.450   0.475   0.472   0.481   0.513   0.546   0.544   0.520   0.574   0.559   0.545   0.543   0.521   0.547   0.557
    24.25    0.533   0.483   0.486   0.471   0.525   0.475   0.451   0.470   0.476   0.484   0.477   0.506   0.462   0.479   0.484   0.451   0.452   0.455   0.484   0.490   0.472   0.470   0.490   0.538   0.544   0.597   0.580   0.584   0.592   0.579   0.588   0.555   0.523   0.572   0.558
    19.60    0.505   0.489   0.488   0.484   0.506   0.479   0.486   0.481   0.479   0.490   0.479   0.487   0.457   0.458   0.460   0.447   0.459   0.466   0.464   0.477   0.476   0.485   0.491   0.515   0.562   0.610   0.625   0.635   0.608   0.552   0.563   0.562   0.554   0.548   0.549
    14.95    0.531   0.495   0.496   0.468   0.505   0.520   0.499   0.490   0.465   0.447   0.477   0.473   0.489   0.439   0.421   0.423   0.429   0.461   0.478   0.486   0.495   0.479   0.490   0.484   0.557   0.577   0.581   0.603   0.609   0.565   0.558   0.543   0.527   0.513   0.498
    10.30    0.513   0.486   0.460   0.506   0.541   0.574   0.550   0.511   0.462   0.434   0.473   0.456   0.443   0.418   0.402   0.398   0.422   0.442   0.428   0.471   0.484   0.480   0.448   0.487   0.517   0.588   0.574   0.612   0.612   0.615   0.556   0.495   0.488   0.457   0.493
     5.65    0.509   0.459   0.449   0.512   0.536   0.529   0.531   0.495   0.465   0.442   0.449   0.437   0.434   0.399   0.401   0.405   0.411   0.421   0.426   0.430   0.451   0.482   0.458   0.492   0.542   0.564   0.573   0.608   0.587   0.561   0.551   0.519   0.506   0.477   0.491
     1.00    0.481   0.472   0.458   0.488   0.504   0.508   0.523   0.501   0.475   0.433   0.431   0.426   0.433   0.417   0.385   0.362   0.401   0.416   0.414   0.417   0.442   0.425   0.432   0.459   0.505   0.513   0.558   0.564   0.535   0.558   0.562   0.526   0.517   0.471   0.470

   Height   Standard deviation at grid points for the v component:
   168.40    0.310   0.328   0.318   0.324   0.319   0.342   0.345   0.333   0.340   0.346   0.338   0.327   0.344   0.352   0.353   0.351   0.347   0.348   0.374   0.375   0.362   0.356   0.357   0.355   0.361   0.352   0.359   0.366   0.363   0.373   0.361   0.370   0.364   0.369   0.374
   163.75    0.314   0.311   0.317   0.319   0.322   0.331   0.341   0.321   0.328   0.332   0.339   0.338   0.347   0.341   0.345   0.358   0.355   0.348   0.363   0.365   0.370   0.365   0.357   0.352   0.351   0.358   0.364   0.378   0.375   0.373   0.359   0.351   0.355   0.355   0.365
   159.10    0.325   0.320   0.329   0.337   0.321   0.330   0.328   0.324   0.329   0.330   0.337   0.347   0.334   0.335   0.348   0.350   0.365   0.367   0.355   0.360   0.368   0.363   0.365   0.360   0.359   0.354   0.374   0.380   0.373   0.364   0.348   0.341   0.342   0.347   0.339
   154.45    0.320   0.335   0.357   0.347   0.335   0.320   0.340   0.351   0.337   0.323   0.319   0.328   0.338   0.346   0.345   0.350   0.368   0.367   0.374   0.349   0.359   0.369   0.365   0.370   0.354   0.357   0.380   0.381   0.369   0.356   0.337   0.349   0.347   0.345   0.342
   149.80    0.341   0.337   0.346   0.360   0.347   0.367   0.346   0.348   0.341   0.325   0.318   0.336   0.329   0.340   0.352   0.348   0.361   0.377   0.370   0.361   0.381   0.353   0.358   0.366   0.363   0.366   0.358   0.356   0.354   0.350   0.361   0.340   0.338   0.353   0.351
   145.15    0.336   0.338   0.349   0.344   0.358   0.348   0.337   0.329   0.345   0.337   0.334   0.334   0.322   0.333   0.343   0.352   0.360   0.372   0.358   0.353   0.370   0.358   0.353   0.363   0.358   0.342   0.350   0.351   0.362   0.351   0.353   0.343   0.333   0.347   0.345
   140.50    0.355   0.340   0.356   0.370   0.352   0.342   0.342   0.329   0.343   0.342   0.341   0.339   0.332   0.333   0.339   0.349   0.355   0.365   0.339   0.358   0.357   0.338   0.340   0.345   0.340   0.345   0.354   0.363   0.362   0.343   0.345   0.344   0.325   0.342   0.322
   135.85    0.359   0.367   0.372   0.359   0.346   0.339   0.339   0.317   0.330   0.331   0.339   0.344   0.334   0.340   0.337   0.344   0.349   0.348   0.344   0.354   0.341   0.342   0.338   0.331   0.345   0.349   0.345   0.336   0.339   0.337   0.330   0.316   0.335   0.326   0.318
   131.20    0.346   0.372   0.358   0.376   0.360   0.334   0.343   0.344   0.314   0.317   0.335   0.341   0.364   0.348   0.337   0.330   0.329   0.328   0.349   0.354   0.350   0.355   0.346   0.337   0.333   0.330   0.331   0.328   0.326   0.317   0.316   0.313   0.318   0.308   0.321
   126.55    0.351   0.360   0.366   0.364   0.345   0.327   0.325   0.339   0.318   0.325   0.320   0.328   0.341   0.344   0.330   0.336   0.315   0.333   0.347   0.351   0.351   0.358   0.347   0.346   0.348   0.340   0.335   0.341   0.345   0.331   0.310   0.298   0.306   0.317   0.331
   121.90    0.355   0.337   0.352   0.357   0.344   0.336   0.318   0.324   0.327   0.329   0.314   0.319   0.327   0.336   0.339   0.337   0.331   0.339   0.338   0.352   0.337   0.349   0.347   0.335   0.329   0.332   0.321   0.314   0.351   0.346   0.315   0.313   0.316   0.311   0.319
   117.25    0.348   0.356   0.368   0.352   0.335   0.334   0.321   0.340   0.335   0.322   0.322   0.323   0.317   0.335   0.337   0.332   0.321   0.329   0.332   0.337   0.338   0.349   0.353   0.354   0.333   0.327   0.330   0.320   0.341   0.338   0.331   0.307   0.309   0.305   0.297
   112.60    0.356   0.362   0.361   0.371   0.331   0.321   0.325   0.313   0.318   0.336   0.338   0.320   0.323   0.328   0.325   0.347   0.326   0.326   0.336   0.336   0.344   0.354   0.351   0.334   0.329   0.321   0.318   0.334   0.349   0.356   0.342   0.318   0.316   0.310   0.293
   107.95    0.359   0.358   0.348   0.355   0.342   0.342   0.324   0.320   0.317   0.317   0.319   0.325   0.324   0.315   0.336   0.345   0.321   0.349   0.350   0.333   0.340   0.343   0.330   0.331   0.340   0.334   0.317   0.332   0.343   0.347   0.338   0.325   0.317   0.319   0.302
   103.30    0.361   0.351   0.342   0.341   0.344   0.345   0.333   0.323   0.318   0.331   0.310   0.332   0.333   0.339   0.335   0.343   0.340   0.356   0.339   0.350   0.340   0.340   0.316   0.335   0.334   0.327   0.331   0.339   0.340   0.350   0.350   0.347   0.319   0.320   0.312
    98.65    0.368   0.373   0.349   0.351   0.331   0.334   0.319   0.309   0.316   0.330   0.324   0.333   0.335   0.346   0.345   0.343   0.346   0.342   0.350   0.342   0.340   0.325   0.331   0.320   0.331   0.346   0.336   0.338   0.352   0.346   0.336   0.333   0.315   0.324   0.316
    94.00    0.361   0.362   0.344   0.334   0.329   0.331   0.318   0.303   0.305   0.324   0.325   0.339   0.346   0.348   0.344   0.339   0.348   0.353   0.362   0.346   0.342   0.353   0.343   0.339   0.338   0.349   0.342   0.368   0.370   0.352   0.357   0.334   0.333   0.343   0.346
    89.35    0.338   0.348   0.345   0.318   0.324   0.322   0.328   0.320   0.315   0.308   0.317   0.310   0.339   0.341   0.338   0.346   0.356   0.362   0.360   0.347   0.341   0.342   0.352   0.347   0.344   0.357   0.366   0.383   0.369   0.356   0.363   0.347   0.352   0.354   0.329
    84.70    0.331   0.340   0.332   0.307   0.326   0.333   0.341   0.346   0.343   0.320   0.321   0.312   0.334   0.349   0.344   0.336   0.338   0.353   0.366   0.354   0.332   0.338   0.346   0.352   0.357   0.352   0.358   0.376   0.370   0.367   0.345   0.356   0.361   0.341   0.341
    80.05    0.359   0.341   0.324   0.314   0.314   0.319   0.330   0.331   0.345   0.335   0.315   0.325   0.341   0.360   0.355   0.344   0.343   0.345   0.357   0.347   0.333   0.338   0.352   0.355   0.339   0.358   0.346   0.368   0.364   0.356   0.360   0.373   0.361   0.372   0.351
    75.40    0.349   0.347   0.330   0.334   0.329   0.323   0.332   0.337   0.343   0.342   0.337   0.326   0.343   0.352   0.349   0.340   0.337   0.332   0.343   0.345   0.334   0.336   0.354   0.360   0.359   0.347   0.352   0.358   0.354   0.364   0.366   0.380   0.363   0.353   0.365
    70.75    0.350   0.347   0.325   0.326   0.326   0.335   0.327   0.335   0.342   0.337   0.333   0.333   0.344   0.343   0.343   0.333   0.326   0.323   0.337   0.333   0.339   0.330   0.351   0.350   0.356   0.334   0.344   0.352   0.368   0.368   0.374   0.380   0.364   0.358   0.363
    66.10    0.355   0.335   0.337   0.339   0.325   0.332   0.346   0.346   0.347   0.331   0.321   0.329   0.340   0.332   0.337   0.338   0.339   0.338   0.351   0.341   0.364   0.348   0.352   0.359   0.341   0.350   0.343   0.352   0.359   0.351   0.344   0.350   0.360   0.351   0.348
    61.45    0.349   0.337   0.340   0.337   0.323   0.324   0.329   0.338   0.342   0.330   0.322   0.328   0.330   0.322   0.343   0.345   0.347   0.337   0.353   0.353   0.354   0.375   0.369   0.357   0.349   0.356   0.349   0.355   0.356   0.344   0.337   0.348   0.356   0.353   0.358
    56.80    0.348   0.350   0.347   0.345   0.330   0.331   0.343   0.342   0.324   0.331   0.327   0.348   0.334   0.326   0.332   0.343   0.351   0.339   0.338   0.345   0.360   0.369   0.365   0.373   0.362   0.363   0.350   0.350   0.344   0.345   0.330   0.339   0.359   0.354   0.362
    52.15    0.347   0.341   0.345   0.340   0.348   0.329   0.328   0.326   0.329   0.329   0.351   0.324   0.341   0.324   0.340   0.343   0.330   0.344   0.335   0.348   0.360   0.360   0.353   0.368   0.361   0.356   0.354   0.350   0.337   0.329   0.342   0.359   0.356   0.361   0.355
    47.50    0.346   0.336   0.343   0.340   0.340   0.329   0.328   0.319   0.321   0.329   0.344   0.343   0.356   0.342   0.326   0.341   0.338   0.344   0.337   0.346   0.348   0.350   0.361   0.371   0.364   0.353   0.383   0.355   0.351   0.352   0.368   0.343   0.340   0.351   0.358
    42.85    0.342   0.352   0.350   0.358   0.335   0.334   0.319   0.323   0.343   0.339   0.347   0.341   0.353   0.355   0.330   0.331   0.347   0.340   0.349   0.352   0.345   0.344   0.358   0.353   0.359   0.358   0.369   0.371   0.366   0.374   0.368   0.346   0.336   0.339   0.344
    38.20    0.351   0.347   0.337   0.352   0.339   0.331   0.331   0.318   0.335   0.339   0.336   0.330   0.333   0.333   0.348   0.328   0.334   0.355   0.356   0.346   0.352   0.342   0.353   0.352   0.351   0.353   0.358   0.386   0.356   0.359   0.345   0.346   0.333   0.341   0.342
    33.55    0.340   0.336   0.350   0.346   0.336   0.330   0.331   0.321   0.333   0.339   0.339   0.334   0.346   0.351   0.336   0.336   0.347   0.345   0.352   0.353   0.349   0.350   0.350   0.347   0.344   0.339   0.375   0.373   0.339   0.326   0.339   0.337   0.338   0.335   0.348
    28.90    0.335   0.329   0.340   0.349   0.338   0.343   0.311   0.325   0.329   0.332   0.338   0.340   0.346   0.364   0.359   0.359   0.346   0.352   0.350   0.340   0.366   0.362   0.351   0.360   0.344   0.351   0.375   0.374   0.340   0.335   0.329   0.319   0.324   0.332   0.346
    24.25    0.317   0.325   0.330   0.332   0.338   0.350   0.335   0.333   0.332   0.335   0.341   0.340   0.348   0.352   0.346   0.368   0.374   0.359   0.346   0.356   0.363   0.353   0.366   0.365   0.359   0.379   0.370   0.363   0.354   0.340   0.330   0.309   0.327   0.334   0.340
    19.60    0.315   0.326   0.327   0.310   0.326   0.336   0.334   0.317   0.346   0.326   0.339   0.338   0.334   0.352   0.364   0.363   0.368   0.355   0.349   0.347   0.359   0.350   0.359   0.345   0.355   0.360   0.370   0.365   0.359   0.342   0.331   0.331   0.322   0.324   0.334
    14.95    0.318   0.334   0.315   0.325   0.332   0.343   0.337   0.335   0.340   0.326   0.334   0.348   0.349   0.346   0.354   0.372   0.380   0.365   0.354   0.342   0.356   0.333   0.338   0.328   0.330   0.353   0.342   0.359   0.344   0.330   0.332   0.323   0.325   0.321   0.343
    10.30    0.330   0.320   0.332   0.338   0.346   0.337   0.346   0.341   0.341   0.315   0.320   0.335   0.344   0.350   0.346   0.365   0.388   0.359   0.354   0.354   0.357   0.345   0.322   0.325   0.342   0.332   0.334   0.356   0.331   0.336   0.329   0.329   0.341   0.348   0.362
     5.65    0.336   0.346   0.336   0.333   0.337   0.354   0.348   0.324   0.321   0.318   0.332   0.328   0.342   0.340   0.342   0.343   0.363   0.384   0.372   0.366   0.346   0.353   0.337   0.345   0.348   0.357   0.345   0.342   0.333   0.337   0.331   0.344   0.344   0.368   0.378
     1.00    0.329   0.326   0.331   0.325   0.320   0.339   0.323   0.314   0.309   0.321   0.332   0.339   0.332   0.334   0.344   0.352   0.349   0.364   0.349   0.357   0.361   0.353   0.355   0.361   0.357   0.355   0.360   0.342   0.359   0.364   0.356   0.367   0.367   0.381   0.380

   Height   Standard deviation at grid points for the w component:
   168.40    0.257   0.263   0.259   0.253   0.255   0.261   0.261   0.250   0.252   0.255   0.255   0.266   0.244   0.244   0.250   0.251   0.255   0.271   0.270   0.266   0.261   0.259   0.257   0.240   0.240   0.250   0.253   0.248   0.248   0.238   0.242   0.246   0.254   0.253   0.249
   163.75    0.253   0.266   0.250   0.250   0.260   0.265   0.254   0.250   0.243   0.249   0.250   0.263   0.249   0.250   0.251   0.251   0.265   0.269   0.261   0.254   0.250   0.248   0.257   0.253   0.247   0.255   0.259   0.248   0.247   0.232   0.252   0.257   0.267   0.265   0.258
   159.10    0.259   0.252   0.247   0.254   0.261   0.259   0.254   0.257   0.247   0.245   0.256   0.260   0.258   0.263   0.255   0.246   0.254   0.253   0.256   0.259   0.263   0.246   0.250   0.250   0.257   0.256   0.260   0.254   0.253   0.238   0.254   0.266   0.269   0.269   0.262
   154.45    0.246   0.248   0.238   0.235   0.251   0.256   0.253   0.245   0.240   0.240   0.254   0.261   0.264   0.249   0.253   0.250   0.247   0.246   0.260   0.263   0.267   0.259   0.253   0.256   0.261   0.260   0.267   0.254   0.255   0.252   0.251   0.262   0.264   0.266   0.271
   149.80    0.254   0.246   0.248   0.237   0.239   0.247   0.236   0.240   0.249   0.251   0.257   0.258   0.256   0.257   0.260   0.252   0.246   0.246   0.241   0.258   0.262   0.256   0.264   0.267   0.255   0.251   0.259   0.261   0.250   0.258   0.255   0.264   0.261   0.269   0.267
   145.15    0.247   0.244   0.248   0.249   0.248   0.240   0.225   0.239   0.247   0.256   0.257   0.251   0.260   0.256   0.254   0.257   0.259   0.249   0.249   0.258   0.260   0.259   0.259   0.250   0.247   0.244   0.257   0.256   0.254   0.254   0.257   0.260   0.257   0.260   0.265
   140.50    0.248   0.246   0.245   0.241   0.237   0.232   0.235   0.239   0.256   0.257   0.253   0.251   0.247   0.256   0.262   0.264   0.265   0.254   0.252   0.255   0.252   0.254   0.259   0.257   0.245   0.259   0.252   0.254   0.250   0.252   0.259   0.261   0.266   0.262   0.258
   135.85    0.245   0.242   0.240   0.236   0.231   0.237   0.242   0.249   0.259   0.270   0.253   0.259   0.254   0.265   0.260   0.264   0.259   0.252   0.256   0.253   0.256   0.261   0.267   0.274   0.261   0.258   0.249   0.248   0.243   0.243   0.253   0.251   0.257   0.255   0.258
   131.20    0.242   0.250   0.251   0.253   0.253   0.244   0.248   0.259   0.261   0.256   0.254   0.255   0.260   0.260   0.253   0.259   0.248   0.258   0.251   0.250   0.261   0.261   0.263   0.264   0.263   0.246   0.237   0.244   0.242   0.249   0.251   0.253   0.247   0.257   0.256
   126.55    0.247   0.243   0.250   0.256   0.247   0.244   0.241   0.252   0.257   0.249   0.254   0.252   0.269   0.259   0.258   0.257   0.252   0.257   0.257   0.261   0.262   0.251   0.262   0.259   0.255   0.251   0.250   0.249   0.246   0.248   0.244   0.238   0.241   0.248   0.252
   121.90    0.243   0.245   0.246   0.248   0.258   0.244   0.260   0.253   0.262   0.259   0.258   0.258   0.257   0.263   0.247   0.256   0.264   0.268   0.256   0.260   0.258   0.266   0.264   0.266   0.256   0.260   0.257   0.252   0.253   0.245   0.246   0.240   0.238   0.251   0.256
   117.25    0.250   0.257   0.255   0.258   0.266   0.254   0.259   0.254   0.250   0.251   0.255   0.261   0.267   0.258   0.259   0.259   0.260   0.265   0.252   0.258   0.270   0.265   0.265   0.250   0.258   0.258   0.240   0.250   0.258   0.251   0.238   0.241   0.240   0.244   0.252
   112.60    0.256   0.266   0.275   0.263   0.266   0.254   0.257   0.256   0.255   0.265   0.261   0.272   0.268   0.256   0.247   0.252   0.254   0.256   0.249   0.260   0.263   0.266   0.263   0.258   0.258   0.255   0.245   0.254   0.259   0.251   0.250   0.245   0.251   0.248   0.255
   107.95    0.263   0.272   0.281   0.271   0.270   0.273   0.261   0.264   0.263   0.253   0.266   0.267   0.257   0.251   0.246   0.255   0.259   0.252   0.247   0.257   0.261   0.269   0.264   0.260   0.250   0.255   0.253   0.251   0.255   0.252   0.256   0.259   0.258   0.264   0.265
   103.30    0.263   0.263   0.267   0.275   0.264   0.277   0.270   0.272   0.269   0.250   0.260   0.257   0.259   0.262   0.249   0.255   0.259   0.246   0.251   0.259   0.270   0.259   0.262   0.260   0.248   0.238   0.248   0.245   0.253   0.251   0.258   0.263   0.269   0.271   0.262
    98.65    0.261   0.256   0.264   0.274   0.267   0.273   0.274   0.272   0.255   0.262   0.259   0.253   0.246   0.252   0.246   0.253   0.243   0.257   0.244   0.253   0.253   0.252   0.255   0.256   0.257   0.236   0.239   0.244   0.245   0.252   0.261   0.253   0.262   0.263   0.260
    94.00    0.267   0.256   0.265   0.254   0.256   0.266   0.269   0.275   0.265   0.267   0.257   0.243   0.242   0.239   0.233   0.241   0.248   0.253   0.254   0.262   0.245   0.254   0.251   0.255   0.259   0.249   0.242   0.239   0.249   0.250   0.252   0.251   0.250   0.246   0.245
    89.35    0.271   0.264   0.263   0.250   0.252   0.254   0.255   0.265   0.260   0.259   0.248   0.239   0.241   0.233   0.231   0.225   0.237   0.254   0.247   0.255   0.238   0.244   0.245   0.250   0.246   0.241   0.245   0.242   0.243   0.246   0.250   0.264   0.252   0.242   0.256
    84.70    0.275   0.272   0.261   0.260   0.263   0.254   0.258   0.261   0.257   0.261   0.261   0.245   0.233   0.230   0.225   0.228   0.236   0.240   0.244   0.247   0.242   0.240   0.241   0.244   0.246   0.264   0.249   0.243   0.241   0.249   0.249   0.258   0.254   0.253   0.252
    80.05    0.270   0.266   0.264   0.264   0.267   0.266   0.254   0.262   0.254   0.257   0.259   0.245   0.243   0.232   0.221   0.227   0.235   0.236   0.241   0.248   0.243   0.231   0.244   0.244   0.252   0.254   0.246   0.246   0.248   0.251   0.243   0.248   0.248   0.251   0.255
    75.40    0.267   0.259   0.262   0.274   0.271   0.274   0.261   0.267   0.252   0.243   0.249   0.232   0.238   0.245   0.235   0.231   0.238   0.239   0.239   0.232   0.239   0.244   0.255   0.250   0.245   0.239   0.243   0.245   0.244   0.249   0.252   0.241   0.249   0.253   0.245
    70.75    0.265   0.272   0.272   0.271   0.267   0.274   0.268   0.254   0.253   0.256   0.250   0.241   0.230   0.230   0.234   0.236   0.228   0.233   0.236   0.233   0.229   0.242   0.253   0.244   0.243   0.241   0.240   0.249   0.245   0.244   0.245   0.239   0.250   0.253   0.236
    66.10    0.264   0.274   0.272   0.282   0.274   0.273   0.263   0.261   0.251   0.257   0.247   0.246   0.236   0.236   0.235   0.227   0.230   0.233   0.239   0.236   0.242   0.250   0.258   0.248   0.248   0.240   0.248   0.248   0.247   0.245   0.248   0.244   0.247   0.254   0.241
    61.45    0.274   0.270   0.269   0.275   0.270   0.271   0.273   0.272   0.261   0.255   0.253   0.244   0.236   0.235   0.243   0.242   0.238   0.237   0.236   0.246   0.242   0.253   0.250   0.250   0.236   0.246   0.251   0.239   0.242   0.245   0.254   0.252   0.244   0.247   0.240
    56.80    0.266   0.267   0.270   0.273   0.273   0.270   0.267   0.270   0.267   0.260   0.259   0.245   0.242   0.243   0.234   0.244   0.241   0.241   0.248   0.242   0.242   0.255   0.246   0.239   0.235   0.243   0.237   0.247   0.248   0.255   0.252   0.251   0.234   0.239   0.240
    52.15    0.265   0.275   0.271   0.265   0.270   0.274   0.271   0.267   0.265   0.260   0.258   0.252   0.249   0.244   0.243   0.234   0.247   0.252   0.250   0.251   0.242   0.247   0.237   0.236   0.238   0.249   0.249   0.249   0.251   0.247   0.255   0.250   0.234   0.234   0.242
    47.50    0.263   0.265   0.268   0.262   0.255   0.262   0.262   0.256   0.259   0.249   0.253   0.248   0.241   0.245   0.238   0.237   0.246   0.253   0.243   0.253   0.243   0.239   0.241   0.233   0.243   0.248   0.246   0.252   0.248   0.252   0.248   0.247   0.236   0.245   0.242
    42.85    0.257   0.259   0.263   0.257   0.266   0.257   0.267   0.267   0.259   0.249   0.251   0.248   0.246   0.245   0.237   0.244   0.240   0.250   0.254   0.260   0.241   0.244   0.238   0.250   0.250   0.250   0.242   0.245   0.244   0.244   0.250   0.246   0.246   0.238   0.246
    38.20    0.262   0.255   0.255   0.257   0.259   0.257   0.262   0.263   0.261   0.252   0.249   0.247   0.245   0.244   0.234   0.241   0.248   0.244   0.247   0.252   0.243   0.241   0.248   0.254   0.255   0.267   0.244   0.240   0.237   0.242   0.249   0.243   0.247   0.245   0.247
    33.55    0.257   0.259   0.261   0.257   0.253   0.254   0.262   0.267   0.254   0.247   0.249   0.242   0.246   0.243   0.232   0.235   0.247   0.243   0.246   0.249   0.253   0.247   0.250   0.249   0.252   0.262   0.241   0.248   0.244   0.246   0.251   0.259   0.252   0.257   0.248
    28.90    0.260   0.257   0.265   0.261   0.251   0.252   0.251   0.255   0.261   0.257   0.250   0.255   0.250   0.248   0.244   0.234   0.247   0.241   0.251   0.247   0.248   0.255   0.249   0.254   0.255   0.262   0.265   0.251   0.260   0.261   0.263   0.257   0.255   0.256   0.260
    24.25    0.254   0.258   0.263   0.259   0.251   0.259   0.254   0.257   0.258   0.262   0.254   0.246   0.249   0.250   0.248   0.246   0.232   0.228   0.248   0.250   0.245   0.254   0.255   0.257   0.245   0.260   0.259   0.260   0.263   0.264   0.261   0.269   0.259   0.256   0.258
    19.60    0.249   0.250   0.254   0.254   0.263   0.254   0.268   0.267   0.261   0.254   0.250   0.250   0.247   0.244   0.248   0.243   0.236   0.244   0.241   0.256   0.257   0.251   0.254   0.248   0.250   0.257   0.264   0.264   0.263   0.268   0.264   0.266   0.258   0.258   0.257
    14.95    0.249   0.253   0.249   0.255   0.259   0.263   0.264   0.271   0.268   0.261   0.256   0.258   0.252   0.241   0.249   0.241   0.237   0.251   0.258   0.256   0.265   0.252   0.248   0.248   0.257   0.261   0.261   0.272   0.266   0.256   0.260   0.265   0.258   0.265   0.260
    10.30    0.257   0.249   0.255   0.256   0.265   0.267   0.264   0.270   0.264   0.252   0.258   0.248   0.248   0.240   0.242   0.237   0.248   0.254   0.261   0.253   0.248   0.254   0.254   0.249   0.249   0.259   0.253   0.261   0.264   0.255   0.248   0.258   0.259   0.255   0.266
     5.65    0.254   0.243   0.251   0.252   0.262   0.259   0.269   0.261   0.257   0.264   0.250   0.251   0.248   0.231   0.235   0.231   0.243   0.255   0.260   0.247   0.237   0.249   0.247   0.242   0.249   0.257   0.264   0.262   0.262   0.239   0.240   0.245   0.252   0.250   0.251
     1.00    0.256   0.253   0.252   0.262   0.272   0.260   0.264   0.260   0.253   0.255   0.256   0.246   0.243   0.237   0.233   0.243   0.239   0.249   0.262   0.251   0.247   0.249   0.246   0.253   0.258   0.261   0.250   0.260   0.251   0.248   0.238   0.247   0.251   0.250   0.252

   Mean standard deviation across all grid points:
      u component:    0.467 m/s
      v component:    0.343 m/s
      w component:    0.253 m/s


U-component (X) statistics from the interpolated hub point:

   Mean =   9.9913 m/s
   TI   =   4.4980 %


Processing complete.  6044.9 CPU seconds used.
