
This summary file was generated by TurbSim (from OpenFAST-v3.5.3) on 19-Apr-2025 at 22:00:37.


Runtime Options:

1333634118  Random seed #1
    RANLUX  Type of random number generator
         F  Output binary HH turbulence parameters?
         F  Output formatted turbulence parameters?
         F  Output AeroDyn HH files?
         T  Output AeroDyn FF files?
         F  Output BLADED FF files?
         F  Output tower data?
         F  Output HAWC FF files?
         F  Output formatted FF files?
         T  Output coherent turbulence time step file?
 0 -  NONE  IEC turbulence models scaled to exact specified standard deviation


Turbine/Model Specifications:

        39  Vertical grid-point matrix dimension
       193  Horizontal grid-point matrix dimension
     0.250  Time step [seconds]
   900.000  Analysis time [seconds]
   900.000  Usable output time [seconds]
   177.700  Hub height [m]
   353.400  Grid height [m]
  1785.600  Grid width [m]
     0.000  Vertical flow angle [degrees]
     0.000  Horizontal flow angle [degrees]


Meteorological Boundary Conditions:

    IECKAI  IEC Kaimal spectral model
         1  IEC standard: IEC 61400-1 Ed. 3: 2005
     7.500  Percent turbulence intensity, IEC 61400-1 Ed. 3: 2005
       NTM  IEC Normal Turbulence Model
       N/A  IEC Extreme Turbulence Model (ETM) "c" parameter [m/s]
       USR  Wind profile type
    90.000  Reference height [m]
       N/A  Reference wind speed [m/s]
       N/A  Jet height [m]
       N/A  Power law exponent
     0.030  Surface roughness length [m]


Non-IEC Meteorological Boundary Conditions:

       N/A  Site latitude [degrees]
       N/A  Gradient Richardson number
       N/A  Friction or shear velocity [m/s]
       N/A  Mixing layer depth [m]
       N/A  Mean hub u'w' Reynolds stress
       N/A  Mean hub u'v' Reynolds stress
       N/A  Mean hub v'w' Reynolds stress


Spatial Coherence Models:

       IEC  u-component coherence model
       IEC  v-component coherence model
       IEC  w-component coherence model
(   12.000, 0.353E-03)  u-component coherence parameters
(   12.000, 0.353E-03)  v-component coherence parameters
(   12.000, 0.353E-03)  w-component coherence parameters
       N/A  Coherence exponent


User-Defined Profiles:

  Height   Wind Speed   Horizontal Angle
   (m)        (m/s)          (deg)      
  ------   ----------   ----------------
  353.40      10.00         318.19
  334.80      10.00         321.14
  316.20      10.00         324.10
  297.60      10.00         327.05
  279.00      10.00         330.00
  260.40      10.00         332.95
  241.80      10.00         335.90
  223.20      10.00         338.86
  204.60      10.00         341.81
  186.00      10.00         344.76
  167.40      10.00         347.71
  148.80      10.00         350.67
  130.20      10.00         353.62
  111.60      10.00         356.57
   93.00      10.00         359.52
   74.40      10.00           2.48
   55.80      10.00           5.43
   37.20      10.00           8.38
   18.60      10.00          11.33
    0.00      10.00          14.29


You have requested that the following file(s) be generated:

   /kfs3/scratch/agupta/Projects/RL_Incubator/FinalRuns_Veer/Seed4/./FFSim_Seed4/Cond00_v10.0_PL0.12_TI7.5/Seed_4/Low.bts (AeroDyn/TurbSim full-field wind file)


Turbulence Simulation Scaling Parameter Summary:

   Turbulence model used                            =  IEC Kaimal
   Turbulence characteristic                        =  User-specified
   IEC standard                                     =  IEC 61400-1 Ed. 3: 2005
   Mean wind speed at hub height                    =   10.000 m/s
   Characteristic value of standard deviation       =    0.750 m/s
   Turbulence scale                                 =   42.000 m
   u-component integral scale                       =  340.200 m
   Coherency scale                                  =  340.200 m
   Characteristic value of hub turbulence intensity =    7.500%
   Gradient Richardson number                       =    0.000

   Wind profile type                                =  Linear interpolation of user-defined profile
   Equivalent power law exponent (upper rotor disk) =    0.000
   Mean shear across rotor disk                     =    0.000 (m/s)/m
   Assumed rotor diameter                           =  353.400 m
   Surface roughness length                         =    0.030 m

   Nyquist frequency of turbulent wind field        =    2.000 Hz

   Number of time steps in the FFT                  =     3600
   Number of time steps output                      =     3600
   Number of points simulated                       =     7527


Mean Flow Angles:

   Vertical   =   0.0 degrees
   Horizontal =   0.0 degrees

Mean Wind Speed Profile:

   Height    Wind Speed   Horizontal Angle  Vertical Angle  U-comp (X)   V-comp (Y)   W-comp (Z)
     (m)        (m/s)         (degrees)       (degrees)       (m/s)        (m/s)        (m/s)   
   ------    ----------   ----------------  --------------  ----------   ----------   ----------
    354.4       10.00          318.19            0.00          7.45        -6.67         0.00
    345.1       10.00          319.51            0.00          7.60        -6.49         0.00
    335.8       10.00          320.98            0.00          7.77        -6.30         0.00
    326.5       10.00          322.46            0.00          7.93        -6.09         0.00
    317.2       10.00          323.94            0.00          8.08        -5.89         0.00
    307.9       10.00          325.41            0.00          8.23        -5.68         0.00
    298.6       10.00          326.89            0.00          8.38        -5.46         0.00
    289.3       10.00          328.37            0.00          8.51        -5.25         0.00
    280.0       10.00          329.84            0.00          8.65        -5.02         0.00
    270.7       10.00          331.32            0.00          8.77        -4.80         0.00
    261.4       10.00          332.79            0.00          8.89        -4.57         0.00
    252.1       10.00          334.27            0.00          9.01        -4.34         0.00
    242.8       10.00          335.75            0.00          9.12        -4.11         0.00
    233.5       10.00          337.22            0.00          9.22        -3.87         0.00
    224.2       10.00          338.70            0.00          9.32        -3.63         0.00
    214.9       10.00          340.17            0.00          9.41        -3.39         0.00
    205.6       10.00          341.65            0.00          9.49        -3.15         0.00
    196.3       10.00          343.13            0.00          9.57        -2.90         0.00
    187.0       10.00          344.60            0.00          9.64        -2.66         0.00
    177.7       10.00          346.08            0.00          9.71        -2.41         0.00
    168.4       10.00          347.56            0.00          9.77        -2.15         0.00
    159.1       10.00          349.03            0.00          9.82        -1.90         0.00
    149.8       10.00          350.51            0.00          9.86        -1.65         0.00
    140.5       10.00          351.98            0.00          9.90        -1.39         0.00
    131.2       10.00          353.46            0.00          9.93        -1.14         0.00
    121.9       10.00          354.94            0.00          9.96        -0.88         0.00
    112.6       10.00          356.41            0.00          9.98        -0.63         0.00
    103.3       10.00          357.89            0.00          9.99        -0.37         0.00
     94.0       10.00          359.37            0.00         10.00        -0.11         0.00
     84.7       10.00          360.84            0.00         10.00         0.15         0.00
     75.4       10.00          362.32            0.00          9.99         0.40         0.00
     66.1       10.00            3.79            0.00          9.98         0.66         0.00
     56.8       10.00            5.27            0.00          9.96         0.92         0.00
     47.5       10.00            6.75            0.00          9.93         1.17         0.00
     38.2       10.00            8.22            0.00          9.90         1.43         0.00
     28.9       10.00            9.70            0.00          9.86         1.68         0.00
     19.6       10.00           11.17            0.00          9.81         1.94         0.00
     10.3       10.00           12.65            0.00          9.76         2.19         0.00
      1.0       10.00           14.13            0.00          9.70         2.44         0.00


Harvested Random Seeds after Generation of the Random Numbers:

    377667225 K 1
            0 K 2


Hub-Height Simulated Turbulence Statistical Summary:

   Type of Wind        Min (m/s)   Mean (m/s)    Max (m/s)  Sigma (m/s)       TI (%)
   ----------------    ---------   ----------    ---------  -----------       ------
   Longitudinal (u)         7.66        10.00        12.20        0.757        7.567
   Lateral (v)             -1.52        -0.00         1.54        0.538        5.378
   Vertical (w)            -1.39         0.00         1.24        0.367        3.666
   U component              7.25         9.71        12.05        0.759        7.821
   V component             -3.94        -2.41        -0.68        0.534        5.505
   W component             -1.39         0.00         1.24        0.367        3.777
   Horizontal (U&V)         7.68        10.01        12.23        0.756        7.549
   Total                    7.68        10.02        12.23        0.755        7.538

                       Min Reynolds     Mean Reynolds    Max Reynolds    Correlation
   Product             Stress (m/s)^2   Stress (m/s)^2   Stress (m/s)^2  Coefficient
   ----------------    --------------   --------------   --------------  -----------
   u'w'                     -1.214            -0.004             1.557        -0.016
   u'v'                     -1.880             0.043             2.509         0.106
   v'w'                     -1.101             0.006             0.974         0.030


   Friction Velocity (Ustar)  =      0.066 m/s
   Maximum Instantaneous TKE  =      3.267 (m/s)^2
   Maximum Instantaneous CTKE =      1.302 (m/s)^2


Grid Point Variance Summary:

   Y-coord -892.80 -883.50 -874.20 -864.90 -855.60 -846.30 -837.00 -827.70 -818.40 -809.10 -799.80 -790.50 -781.20 -771.90 -762.60 -753.30 -744.00 -734.70 -725.40 -716.10 -706.80 -697.50 -688.20 -678.90 -669.60 -660.30 -651.00 -641.70 -632.40 -623.10 -613.80 -604.50 -595.20 -585.90 -576.60 -567.30 -558.00 -548.70 -539.40 -530.10 -520.80 -511.50 -502.20 -492.90 -483.60 -474.30 -465.00 -455.70 -446.40 -437.10 -427.80 -418.50 -409.20 -399.90 -390.60 -381.30 -372.00 -362.70 -353.40 -344.10 -334.80 -325.50 -316.20 -306.90 -297.60 -288.30 -279.00 -269.70 -260.40 -251.10 -241.80 -232.50 -223.20 -213.90 -204.60 -195.30 -186.00 -176.70 -167.40 -158.10 -148.80 -139.50 -130.20 -120.90 -111.60 -102.30  -93.00  -83.70  -74.40  -65.10  -55.80  -46.50  -37.20  -27.90  -18.60   -9.30    0.00    9.30   18.60   27.90   37.20   46.50   55.80   65.10   74.40   83.70   93.00  102.30  111.60  120.90  130.20  139.50  148.80  158.10  167.40  176.70  186.00  195.30  204.60  213.90  223.20  232.50  241.80  251.10  260.40  269.70  279.00  288.30  297.60  306.90  316.20  325.50  334.80  344.10  353.40  362.70  372.00  381.30  390.60  399.90  409.20  418.50  427.80  437.10  446.40  455.70  465.00  474.30  483.60  492.90  502.20  511.50  520.80  530.10  539.40  548.70  558.00  567.30  576.60  585.90  595.20  604.50  613.80  623.10  632.40  641.70  651.00  660.30  669.60  678.90  688.20  697.50  706.80  716.10  725.40  734.70  744.00  753.30  762.60  771.90  781.20  790.50  799.80  809.10  818.40  827.70  837.00  846.30  855.60  864.90  874.20  883.50  892.80

   Height   Standard deviation at grid points for the u component:
   354.40    0.628   0.674   0.703   0.744   0.757   0.783   0.766   0.730   0.695   0.703   0.733   0.718   0.685   0.728   0.663   0.689   0.619   0.605   0.588   0.569   0.566   0.560   0.594   0.605   0.608   0.618   0.627   0.632   0.624   0.680   0.632   0.664   0.668   0.680   0.639   0.674   0.660   0.705   0.762   0.779   0.718   0.687   0.714   0.662   0.679   0.658   0.631   0.647   0.631   0.631   0.651   0.642   0.634   0.699   0.700   0.724   0.697   0.658   0.663   0.614   0.604   0.618   0.622   0.673   0.653   0.655   0.676   0.659   0.654   0.633   0.688   0.665   0.615   0.662   0.660   0.648   0.694   0.745   0.774   0.731   0.726   0.723   0.721   0.724   0.725   0.741   0.725   0.735   0.696   0.749   0.739   0.788   0.776   0.831   0.795   0.773   0.753   0.710   0.726   0.768   0.726   0.672   0.718   0.698   0.676   0.688   0.665   0.675   0.698   0.717   0.711   0.728   0.740   0.737   0.772   0.754   0.745   0.717   0.708   0.694   0.686   0.692   0.730   0.666   0.654   0.682   0.676   0.686   0.723   0.675   0.691   0.747   0.799   0.764   0.770   0.777   0.805   0.768   0.757   0.739   0.741   0.750   0.711   0.756   0.712   0.754   0.725   0.739   0.763   0.758   0.764   0.769   0.753   0.735   0.734   0.748   0.773   0.742   0.686   0.673   0.673   0.697   0.670   0.623   0.604   0.655   0.701   0.693   0.662   0.609   0.676   0.667   0.648   0.691   0.661   0.667   0.627   0.669   0.683   0.639   0.630   0.637   0.643   0.715   0.687   0.701   0.684   0.667   0.727   0.737   0.732   0.754   0.727
   345.10    0.678   0.670   0.664   0.715   0.783   0.791   0.743   0.702   0.735   0.733   0.698   0.703   0.740   0.738   0.704   0.692   0.649   0.614   0.585   0.590   0.612   0.554   0.592   0.592   0.601   0.587   0.618   0.626   0.677   0.651   0.669   0.695   0.637   0.674   0.695   0.709   0.704   0.789   0.785   0.752   0.722   0.666   0.664   0.681   0.628   0.656   0.680   0.634   0.612   0.643   0.611   0.616   0.644   0.688   0.723   0.733   0.702   0.682   0.704   0.649   0.598   0.623   0.624   0.671   0.649   0.655   0.651   0.637   0.649   0.674   0.652   0.614   0.617   0.648   0.665   0.619   0.606   0.715   0.773   0.733   0.708   0.746   0.778   0.817   0.692   0.700   0.756   0.737   0.754   0.775   0.745   0.772   0.756   0.748   0.784   0.788   0.762   0.753   0.712   0.764   0.737   0.671   0.641   0.671   0.701   0.649   0.659   0.703   0.701   0.669   0.670   0.676   0.692   0.702   0.720   0.707   0.708   0.693   0.752   0.716   0.693   0.684   0.697   0.713   0.659   0.616   0.680   0.724   0.713   0.707   0.705   0.713   0.736   0.776   0.759   0.761   0.752   0.747   0.737   0.724   0.731   0.775   0.819   0.810   0.789   0.762   0.768   0.756   0.768   0.769   0.724   0.741   0.680   0.710   0.675   0.691   0.728   0.707   0.698   0.657   0.668   0.711   0.655   0.673   0.605   0.654   0.715   0.691   0.670   0.642   0.646   0.667   0.673   0.666   0.657   0.632   0.641   0.650   0.601   0.600   0.600   0.588   0.627   0.670   0.659   0.680   0.683   0.688   0.700   0.788   0.754   0.742   0.731
   335.80    0.742   0.715   0.719   0.777   0.842   0.824   0.800   0.761   0.768   0.741   0.700   0.717   0.703   0.701   0.713   0.699   0.700   0.658   0.604   0.574   0.628   0.575   0.608   0.551   0.591   0.586   0.579   0.626   0.664   0.646   0.647   0.694   0.687   0.703   0.713   0.752   0.779   0.781   0.769   0.739   0.740   0.695   0.689   0.693   0.654   0.679   0.657   0.693   0.667   0.632   0.631   0.620   0.646   0.689   0.688   0.702   0.749   0.738   0.715   0.698   0.661   0.643   0.656   0.683   0.696   0.677   0.661   0.651   0.642   0.671   0.636   0.625   0.619   0.636   0.680   0.685   0.648   0.694   0.728   0.690   0.692   0.747   0.774   0.765   0.727   0.721   0.719   0.698   0.697   0.705   0.755   0.779   0.743   0.709   0.746   0.763   0.769   0.767   0.729   0.761   0.753   0.693   0.672   0.603   0.663   0.688   0.691   0.690   0.675   0.698   0.670   0.676   0.708   0.719   0.713   0.712   0.739   0.736   0.717   0.724   0.642   0.666   0.658   0.679   0.650   0.611   0.695   0.688   0.686   0.713   0.717   0.753   0.728   0.733   0.727   0.752   0.756   0.740   0.745   0.746   0.696   0.762   0.803   0.744   0.789   0.799   0.820   0.785   0.712   0.699   0.740   0.748   0.708   0.687   0.666   0.721   0.727   0.720   0.676   0.706   0.703   0.720   0.711   0.695   0.639   0.659   0.681   0.631   0.604   0.676   0.699   0.689   0.699   0.640   0.670   0.675   0.661   0.610   0.610   0.570   0.606   0.591   0.598   0.641   0.653   0.720   0.652   0.684   0.708   0.754   0.704   0.732   0.754
   326.50    0.775   0.739   0.728   0.805   0.823   0.809   0.867   0.818   0.800   0.795   0.774   0.679   0.700   0.686   0.733   0.737   0.682   0.661   0.619   0.591   0.614   0.598   0.644   0.617   0.597   0.584   0.647   0.655   0.653   0.616   0.614   0.688   0.743   0.713   0.752   0.767   0.787   0.765   0.716   0.758   0.696   0.659   0.681   0.666   0.654   0.640   0.708   0.676   0.656   0.679   0.671   0.639   0.668   0.661   0.716   0.739   0.781   0.765   0.790   0.720   0.720   0.669   0.685   0.677   0.725   0.715   0.704   0.666   0.676   0.697   0.661   0.663   0.624   0.605   0.681   0.685   0.640   0.646   0.660   0.685   0.693   0.659   0.705   0.706   0.692   0.680   0.639   0.683   0.708   0.724   0.699   0.740   0.718   0.704   0.718   0.702   0.733   0.713   0.764   0.787   0.802   0.704   0.685   0.645   0.658   0.682   0.713   0.704   0.713   0.676   0.649   0.659   0.683   0.704   0.650   0.697   0.689   0.742   0.717   0.749   0.684   0.656   0.632   0.646   0.639   0.684   0.679   0.709   0.766   0.767   0.762   0.740   0.788   0.750   0.740   0.750   0.751   0.738   0.757   0.716   0.785   0.758   0.795   0.793   0.760   0.794   0.753   0.775   0.755   0.720   0.739   0.746   0.740   0.692   0.694   0.699   0.708   0.693   0.652   0.685   0.693   0.687   0.718   0.701   0.667   0.652   0.636   0.576   0.576   0.636   0.705   0.705   0.658   0.702   0.715   0.699   0.703   0.645   0.615   0.611   0.605   0.631   0.677   0.626   0.608   0.675   0.694   0.669   0.727   0.748   0.698   0.734   0.778
   317.20    0.776   0.779   0.782   0.782   0.781   0.768   0.822   0.803   0.749   0.796   0.733   0.698   0.699   0.679   0.743   0.699   0.641   0.637   0.636   0.616   0.634   0.644   0.648   0.631   0.662   0.619   0.658   0.634   0.659   0.636   0.652   0.743   0.776   0.737   0.724   0.741   0.745   0.756   0.691   0.733   0.750   0.681   0.680   0.697   0.663   0.688   0.694   0.709   0.700   0.722   0.709   0.712   0.676   0.705   0.770   0.730   0.753   0.804   0.791   0.755   0.784   0.691   0.675   0.718   0.737   0.764   0.700   0.723   0.689   0.637   0.671   0.698   0.644   0.638   0.687   0.648   0.678   0.650   0.619   0.641   0.661   0.671   0.636   0.687   0.685   0.664   0.651   0.663   0.699   0.644   0.662   0.699   0.714   0.639   0.655   0.709   0.727   0.747   0.744   0.815   0.766   0.758   0.722   0.706   0.684   0.704   0.753   0.692   0.696   0.658   0.650   0.652   0.695   0.731   0.694   0.707   0.726   0.729   0.708   0.731   0.744   0.718   0.622   0.638   0.621   0.663   0.643   0.725   0.739   0.750   0.737   0.740   0.744   0.683   0.722   0.763   0.764   0.746   0.714   0.704   0.708   0.736   0.728   0.718   0.732   0.711   0.772   0.722   0.757   0.757   0.752   0.789   0.792   0.731   0.724   0.750   0.679   0.732   0.662   0.721   0.679   0.727   0.700   0.678   0.629   0.615   0.623   0.631   0.568   0.613   0.665   0.693   0.681   0.676   0.752   0.735   0.747   0.684   0.676   0.620   0.605   0.673   0.676   0.641   0.662   0.676   0.684   0.736   0.730   0.770   0.749   0.772   0.761
   307.90    0.721   0.792   0.735   0.742   0.737   0.762   0.767   0.777   0.729   0.752   0.722   0.740   0.693   0.687   0.679   0.682   0.643   0.622   0.617   0.650   0.634   0.632   0.625   0.617   0.626   0.623   0.689   0.714   0.660   0.655   0.660   0.677   0.741   0.742   0.738   0.763   0.756   0.712   0.671   0.743   0.755   0.695   0.698   0.667   0.701   0.706   0.671   0.688   0.696   0.690   0.714   0.747   0.731   0.730   0.768   0.740   0.713   0.772   0.763   0.751   0.775   0.705   0.745   0.742   0.711   0.741   0.753   0.745   0.664   0.645   0.644   0.648   0.650   0.610   0.621   0.590   0.654   0.699   0.662   0.654   0.675   0.699   0.633   0.649   0.651   0.699   0.663   0.699   0.659   0.681   0.697   0.706   0.662   0.691   0.702   0.741   0.673   0.729   0.747   0.775   0.746   0.766   0.749   0.721   0.756   0.745   0.785   0.718   0.675   0.687   0.668   0.668   0.751   0.727   0.744   0.793   0.744   0.743   0.723   0.742   0.774   0.689   0.674   0.660   0.625   0.646   0.667   0.692   0.744   0.720   0.741   0.758   0.732   0.690   0.719   0.778   0.780   0.747   0.693   0.667   0.687   0.694   0.657   0.696   0.730   0.713   0.733   0.752   0.719   0.706   0.729   0.755   0.817   0.773   0.791   0.817   0.761   0.700   0.723   0.747   0.717   0.749   0.683   0.658   0.685   0.660   0.624   0.605   0.621   0.594   0.587   0.679   0.719   0.691   0.718   0.720   0.713   0.670   0.721   0.686   0.674   0.660   0.647   0.678   0.705   0.695   0.684   0.698   0.724   0.727   0.721   0.727   0.796
   298.60    0.726   0.715   0.796   0.756   0.800   0.789   0.808   0.777   0.780   0.790   0.769   0.742   0.709   0.744   0.675   0.686   0.675   0.646   0.673   0.647   0.631   0.591   0.600   0.580   0.625   0.619   0.667   0.673   0.666   0.621   0.655   0.709   0.719   0.735   0.679   0.771   0.799   0.717   0.675   0.693   0.726   0.697   0.682   0.675   0.701   0.735   0.713   0.706   0.687   0.686   0.695   0.697   0.678   0.754   0.727   0.743   0.725   0.744   0.701   0.712   0.743   0.724   0.734   0.705   0.674   0.723   0.727   0.744   0.640   0.616   0.620   0.611   0.647   0.624   0.651   0.605   0.648   0.639   0.628   0.624   0.666   0.733   0.615   0.609   0.641   0.680   0.631   0.650   0.643   0.646   0.654   0.659   0.665   0.680   0.685   0.698   0.716   0.758   0.716   0.779   0.721   0.764   0.769   0.724   0.721   0.682   0.720   0.713   0.675   0.691   0.685   0.764   0.769   0.768   0.751   0.778   0.795   0.709   0.712   0.707   0.739   0.757   0.657   0.650   0.687   0.636   0.671   0.719   0.700   0.691   0.685   0.754   0.752   0.713   0.715   0.772   0.808   0.775   0.680   0.737   0.751   0.717   0.647   0.724   0.746   0.760   0.747   0.749   0.686   0.683   0.685   0.728   0.758   0.784   0.818   0.817   0.789   0.810   0.789   0.776   0.780   0.743   0.697   0.705   0.679   0.681   0.698   0.685   0.656   0.560   0.592   0.634   0.683   0.677   0.689   0.706   0.709   0.727   0.754   0.713   0.680   0.656   0.686   0.709   0.700   0.695   0.659   0.735   0.679   0.658   0.691   0.714   0.758
   289.30    0.730   0.766   0.811   0.839   0.784   0.797   0.776   0.745   0.790   0.787   0.723   0.687   0.634   0.731   0.657   0.686   0.661   0.635   0.647   0.649   0.648   0.615   0.613   0.582   0.579   0.626   0.642   0.693   0.665   0.649   0.693   0.728   0.703   0.734   0.727   0.793   0.806   0.717   0.676   0.701   0.695   0.681   0.677   0.678   0.699   0.718   0.708   0.714   0.721   0.678   0.699   0.695   0.726   0.763   0.746   0.747   0.700   0.714   0.668   0.680   0.706   0.742   0.699   0.750   0.711   0.728   0.712   0.691   0.650   0.599   0.618   0.637   0.646   0.625   0.658   0.667   0.646   0.618   0.644   0.685   0.691   0.747   0.710   0.671   0.647   0.641   0.628   0.634   0.669   0.659   0.673   0.680   0.633   0.689   0.638   0.699   0.705   0.728   0.748   0.728   0.738   0.724   0.730   0.718   0.724   0.667   0.670   0.665   0.709   0.710   0.672   0.731   0.786   0.776   0.760   0.784   0.760   0.742   0.670   0.674   0.682   0.706   0.699   0.657   0.639   0.633   0.657   0.727   0.699   0.681   0.708   0.746   0.699   0.744   0.746   0.749   0.791   0.717   0.693   0.709   0.675   0.672   0.674   0.664   0.694   0.758   0.697   0.717   0.717   0.710   0.688   0.744   0.736   0.753   0.817   0.743   0.769   0.814   0.788   0.793   0.747   0.736   0.696   0.643   0.644   0.682   0.717   0.708   0.680   0.630   0.586   0.609   0.633   0.677   0.664   0.688   0.725   0.751   0.785   0.731   0.687   0.681   0.720   0.723   0.696   0.692   0.710   0.722   0.707   0.667   0.671   0.691   0.750
   280.00    0.784   0.820   0.809   0.804   0.788   0.796   0.733   0.738   0.728   0.719   0.670   0.708   0.708   0.731   0.732   0.719   0.700   0.659   0.658   0.624   0.629   0.595   0.560   0.559   0.612   0.676   0.683   0.658   0.646   0.656   0.650   0.683   0.708   0.729   0.742   0.780   0.772   0.747   0.637   0.646   0.682   0.659   0.625   0.606   0.655   0.668   0.646   0.703   0.716   0.691   0.679   0.689   0.712   0.720   0.764   0.795   0.735   0.691   0.633   0.693   0.726   0.705   0.763   0.728   0.753   0.773   0.755   0.702   0.658   0.653   0.643   0.658   0.653   0.596   0.652   0.637   0.634   0.643   0.644   0.680   0.731   0.746   0.716   0.729   0.692   0.673   0.672   0.641   0.644   0.624   0.616   0.652   0.625   0.647   0.669   0.708   0.742   0.746   0.695   0.707   0.648   0.724   0.688   0.706   0.693   0.665   0.662   0.667   0.698   0.745   0.739   0.786   0.823   0.767   0.769   0.751   0.742   0.759   0.650   0.686   0.702   0.622   0.684   0.698   0.664   0.645   0.722   0.750   0.706   0.679   0.754   0.722   0.706   0.718   0.746   0.741   0.713   0.713   0.695   0.699   0.736   0.689   0.638   0.640   0.663   0.721   0.761   0.730   0.712   0.711   0.681   0.723   0.717   0.728   0.757   0.727   0.770   0.761   0.754   0.761   0.758   0.769   0.729   0.678   0.645   0.692   0.717   0.663   0.652   0.650   0.638   0.640   0.646   0.641   0.684   0.778   0.812   0.825   0.784   0.773   0.730   0.661   0.716   0.740   0.725   0.681   0.677   0.732   0.699   0.713   0.703   0.736   0.741
   270.70    0.760   0.801   0.781   0.801   0.791   0.746   0.742   0.676   0.696   0.701   0.688   0.702   0.704   0.698   0.719   0.708   0.685   0.643   0.634   0.628   0.623   0.619   0.591   0.585   0.613   0.657   0.652   0.639   0.644   0.655   0.662   0.659   0.659   0.705   0.752   0.792   0.721   0.712   0.701   0.655   0.643   0.651   0.655   0.683   0.693   0.687   0.635   0.670   0.705   0.691   0.669   0.674   0.663   0.670   0.712   0.718   0.735   0.699   0.667   0.661   0.697   0.709   0.709   0.748   0.730   0.745   0.762   0.738   0.694   0.685   0.669   0.637   0.648   0.661   0.634   0.628   0.620   0.627   0.671   0.700   0.729   0.743   0.720   0.685   0.679   0.620   0.623   0.683   0.657   0.614   0.600   0.600   0.595   0.635   0.631   0.646   0.670   0.650   0.686   0.666   0.673   0.672   0.695   0.718   0.708   0.721   0.731   0.713   0.704   0.737   0.735   0.713   0.803   0.833   0.742   0.758   0.744   0.756   0.674   0.725   0.639   0.658   0.634   0.698   0.727   0.716   0.695   0.701   0.743   0.751   0.752   0.711   0.725   0.708   0.722   0.762   0.712   0.687   0.637   0.653   0.687   0.653   0.620   0.628   0.675   0.713   0.690   0.696   0.675   0.647   0.682   0.700   0.702   0.706   0.672   0.702   0.773   0.764   0.754   0.790   0.766   0.734   0.751   0.716   0.659   0.681   0.682   0.680   0.639   0.631   0.622   0.605   0.668   0.683   0.724   0.744   0.823   0.846   0.817   0.726   0.704   0.725   0.734   0.748   0.685   0.724   0.699   0.708   0.733   0.730   0.745   0.761   0.741
   261.40    0.755   0.762   0.746   0.740   0.795   0.775   0.758   0.747   0.697   0.681   0.700   0.715   0.669   0.695   0.688   0.663   0.680   0.629   0.650   0.644   0.622   0.571   0.601   0.645   0.659   0.644   0.694   0.650   0.687   0.658   0.640   0.651   0.703   0.669   0.725   0.763   0.747   0.667   0.680   0.652   0.640   0.613   0.636   0.693   0.667   0.659   0.684   0.641   0.652   0.630   0.731   0.706   0.675   0.706   0.705   0.685   0.681   0.685   0.646   0.599   0.639   0.688   0.706   0.699   0.715   0.702   0.665   0.646   0.677   0.688   0.703   0.651   0.699   0.618   0.637   0.616   0.640   0.618   0.704   0.689   0.741   0.798   0.740   0.714   0.704   0.693   0.644   0.616   0.627   0.615   0.632   0.577   0.597   0.589   0.619   0.640   0.694   0.608   0.665   0.707   0.691   0.708   0.684   0.700   0.694   0.718   0.762   0.727   0.716   0.709   0.701   0.733   0.763   0.802   0.754   0.775   0.771   0.764   0.717   0.769   0.688   0.662   0.691   0.682   0.710   0.687   0.702   0.712   0.754   0.759   0.718   0.741   0.712   0.749   0.725   0.761   0.681   0.706   0.705   0.711   0.674   0.706   0.633   0.681   0.694   0.699   0.699   0.697   0.711   0.683   0.692   0.675   0.674   0.674   0.685   0.744   0.776   0.764   0.742   0.752   0.716   0.695   0.702   0.739   0.648   0.627   0.680   0.618   0.635   0.623   0.673   0.690   0.704   0.733   0.751   0.768   0.793   0.817   0.796   0.752   0.755   0.753   0.739   0.734   0.670   0.675   0.678   0.669   0.654   0.694   0.704   0.747   0.736
   252.10    0.717   0.746   0.733   0.681   0.769   0.751   0.787   0.779   0.710   0.670   0.704   0.715   0.708   0.665   0.660   0.644   0.674   0.613   0.659   0.602   0.591   0.596   0.615   0.642   0.650   0.624   0.620   0.649   0.642   0.664   0.664   0.610   0.655   0.688   0.734   0.752   0.747   0.700   0.685   0.708   0.682   0.619   0.657   0.697   0.684   0.712   0.718   0.705   0.682   0.641   0.663   0.650   0.680   0.691   0.735   0.741   0.708   0.695   0.646   0.631   0.639   0.677   0.688   0.700   0.680   0.673   0.638   0.634   0.636   0.619   0.694   0.689   0.663   0.643   0.623   0.656   0.683   0.695   0.703   0.730   0.800   0.758   0.753   0.679   0.709   0.711   0.678   0.652   0.574   0.601   0.602   0.585   0.614   0.611   0.578   0.624   0.653   0.673   0.707   0.712   0.744   0.700   0.729   0.692   0.724   0.734   0.793   0.754   0.754   0.724   0.728   0.741   0.781   0.760   0.737   0.737   0.781   0.781   0.717   0.712   0.724   0.685   0.681   0.752   0.776   0.708   0.731   0.730   0.699   0.730   0.743   0.735   0.708   0.686   0.724   0.719   0.736   0.698   0.727   0.675   0.655   0.696   0.694   0.735   0.697   0.680   0.745   0.756   0.741   0.744   0.751   0.716   0.673   0.677   0.668   0.732   0.779   0.765   0.703   0.741   0.674   0.621   0.658   0.734   0.694   0.637   0.682   0.675   0.672   0.646   0.679   0.743   0.754   0.731   0.772   0.722   0.758   0.804   0.766   0.801   0.772   0.721   0.738   0.720   0.695   0.678   0.694   0.640   0.682   0.688   0.674   0.695   0.729
   242.80    0.711   0.718   0.696   0.707   0.746   0.761   0.775   0.715   0.687   0.671   0.674   0.702   0.682   0.696   0.644   0.661   0.639   0.554   0.608   0.620   0.601   0.584   0.570   0.602   0.649   0.662   0.627   0.642   0.645   0.678   0.667   0.671   0.666   0.692   0.700   0.753   0.758   0.744   0.675   0.727   0.704   0.644   0.614   0.613   0.646   0.674   0.732   0.718   0.662   0.643   0.623   0.618   0.614   0.670   0.659   0.694   0.657   0.649   0.644   0.625   0.621   0.644   0.678   0.675   0.659   0.664   0.670   0.622   0.692   0.707   0.704   0.671   0.704   0.683   0.692   0.632   0.658   0.690   0.692   0.763   0.808   0.758   0.735   0.736   0.690   0.705   0.677   0.627   0.608   0.585   0.594   0.631   0.631   0.647   0.621   0.679   0.681   0.665   0.674   0.720   0.781   0.742   0.719   0.829   0.749   0.794   0.771   0.843   0.795   0.742   0.795   0.747   0.730   0.754   0.732   0.739   0.743   0.757   0.739   0.737   0.747   0.704   0.728   0.731   0.764   0.674   0.675   0.722   0.699   0.687   0.712   0.696   0.715   0.707   0.704   0.741   0.734   0.702   0.704   0.715   0.737   0.738   0.701   0.709   0.751   0.747   0.784   0.716   0.728   0.800   0.772   0.777   0.725   0.663   0.664   0.672   0.743   0.799   0.769   0.718   0.668   0.704   0.703   0.711   0.671   0.673   0.697   0.693   0.716   0.687   0.738   0.697   0.746   0.749   0.754   0.754   0.796   0.860   0.779   0.802   0.762   0.729   0.788   0.725   0.763   0.749   0.732   0.742   0.701   0.705   0.711   0.715   0.688
   233.50    0.666   0.706   0.730   0.735   0.770   0.755   0.687   0.683   0.649   0.630   0.610   0.671   0.660   0.674   0.650   0.646   0.594   0.603   0.600   0.653   0.673   0.628   0.564   0.574   0.591   0.633   0.625   0.665   0.643   0.651   0.714   0.702   0.731   0.706   0.737   0.785   0.788   0.741   0.704   0.689   0.715   0.671   0.643   0.621   0.657   0.694   0.695   0.685   0.627   0.558   0.548   0.599   0.590   0.662   0.661   0.678   0.653   0.656   0.641   0.681   0.654   0.657   0.645   0.675   0.690   0.701   0.682   0.683   0.680   0.685   0.687   0.728   0.713   0.730   0.688   0.663   0.649   0.596   0.660   0.725   0.780   0.763   0.748   0.692   0.666   0.663   0.671   0.659   0.653   0.714   0.702   0.630   0.619   0.708   0.682   0.703   0.691   0.644   0.694   0.737   0.802   0.778   0.772   0.787   0.781   0.785   0.774   0.777   0.801   0.792   0.789   0.722   0.753   0.760   0.705   0.747   0.738   0.729   0.715   0.709   0.691   0.657   0.674   0.689   0.734   0.708   0.690   0.726   0.679   0.687   0.693   0.733   0.715   0.693   0.683   0.682   0.677   0.715   0.753   0.718   0.723   0.771   0.707   0.778   0.792   0.748   0.759   0.719   0.766   0.778   0.742   0.744   0.725   0.739   0.705   0.707   0.753   0.769   0.768   0.712   0.733   0.683   0.697   0.692   0.684   0.683   0.678   0.639   0.692   0.724   0.739   0.717   0.703   0.719   0.774   0.802   0.829   0.841   0.844   0.792   0.812   0.751   0.759   0.738   0.734   0.752   0.758   0.733   0.720   0.744   0.763   0.725   0.698
   224.20    0.680   0.761   0.756   0.816   0.739   0.752   0.715   0.675   0.620   0.624   0.662   0.626   0.661   0.653   0.630   0.625   0.617   0.583   0.615   0.638   0.600   0.645   0.578   0.545   0.560   0.581   0.599   0.663   0.668   0.684   0.677   0.668   0.672   0.668   0.768   0.786   0.802   0.736   0.697   0.742   0.674   0.674   0.656   0.675   0.650   0.627   0.700   0.650   0.605   0.587   0.617   0.590   0.616   0.619   0.639   0.639   0.650   0.641   0.683   0.706   0.631   0.670   0.697   0.667   0.681   0.676   0.686   0.660   0.682   0.731   0.715   0.697   0.734   0.749   0.719   0.683   0.651   0.610   0.656   0.700   0.724   0.770   0.717   0.683   0.711   0.687   0.682   0.659   0.685   0.698   0.689   0.644   0.641   0.634   0.709   0.702   0.709   0.677   0.749   0.784   0.793   0.845   0.840   0.777   0.825   0.800   0.789   0.750   0.786   0.761   0.770   0.788   0.753   0.749   0.731   0.711   0.711   0.713   0.689   0.753   0.735   0.745   0.726   0.751   0.729   0.770   0.766   0.732   0.710   0.689   0.709   0.743   0.714   0.701   0.687   0.697   0.685   0.692   0.772   0.758   0.755   0.761   0.777   0.769   0.766   0.718   0.701   0.645   0.685   0.726   0.752   0.705   0.747   0.765   0.735   0.712   0.719   0.747   0.744   0.781   0.761   0.734   0.724   0.626   0.655   0.681   0.700   0.637   0.640   0.660   0.733   0.752   0.705   0.711   0.739   0.743   0.782   0.823   0.832   0.811   0.724   0.708   0.695   0.732   0.764   0.760   0.743   0.730   0.733   0.727   0.741   0.706   0.618
   214.90    0.739   0.786   0.821   0.794   0.744   0.708   0.720   0.679   0.674   0.645   0.664   0.634   0.614   0.670   0.623   0.681   0.682   0.603   0.639   0.639   0.619   0.609   0.569   0.575   0.560   0.580   0.596   0.696   0.685   0.672   0.720   0.683   0.643   0.669   0.727   0.711   0.755   0.774   0.777   0.739   0.755   0.688   0.673   0.662   0.693   0.640   0.625   0.637   0.604   0.596   0.568   0.606   0.623   0.636   0.635   0.670   0.641   0.664   0.666   0.652   0.695   0.683   0.696   0.646   0.643   0.668   0.677   0.650   0.674   0.744   0.775   0.795   0.724   0.718   0.703   0.656   0.669   0.687   0.634   0.633   0.671   0.690   0.677   0.655   0.632   0.661   0.665   0.693   0.698   0.699   0.619   0.635   0.633   0.635   0.706   0.684   0.710   0.718   0.764   0.777   0.758   0.820   0.798   0.781   0.788   0.805   0.827   0.830   0.742   0.775   0.755   0.760   0.760   0.713   0.734   0.650   0.701   0.697   0.751   0.753   0.735   0.713   0.731   0.760   0.740   0.736   0.743   0.738   0.688   0.730   0.679   0.715   0.715   0.734   0.727   0.746   0.678   0.709   0.778   0.719   0.725   0.741   0.769   0.761   0.735   0.650   0.665   0.677   0.709   0.734   0.737   0.670   0.723   0.738   0.763   0.745   0.740   0.755   0.760   0.770   0.733   0.709   0.689   0.707   0.639   0.660   0.666   0.672   0.699   0.689   0.741   0.743   0.753   0.751   0.745   0.682   0.757   0.786   0.816   0.817   0.739   0.702   0.712   0.752   0.751   0.761   0.747   0.703   0.739   0.737   0.757   0.695   0.650
   205.60    0.773   0.837   0.782   0.764   0.690   0.676   0.678   0.667   0.719   0.682   0.681   0.688   0.654   0.631   0.602   0.668   0.626   0.657   0.658   0.571   0.601   0.592   0.567   0.567   0.554   0.552   0.650   0.703   0.762   0.787   0.744   0.704   0.672   0.707   0.734   0.702   0.705   0.746   0.719   0.710   0.751   0.744   0.653   0.681   0.685   0.600   0.618   0.625   0.580   0.563   0.570   0.576   0.641   0.656   0.677   0.667   0.670   0.675   0.668   0.637   0.647   0.669   0.649   0.666   0.738   0.684   0.698   0.700   0.716   0.777   0.780   0.799   0.766   0.756   0.731   0.715   0.699   0.656   0.661   0.644   0.676   0.685   0.643   0.626   0.658   0.641   0.668   0.671   0.643   0.644   0.650   0.624   0.689   0.679   0.686   0.659   0.752   0.727   0.773   0.802   0.744   0.773   0.786   0.748   0.763   0.809   0.856   0.878   0.856   0.840   0.865   0.827   0.738   0.736   0.655   0.701   0.724   0.727   0.737   0.766   0.752   0.776   0.787   0.791   0.810   0.785   0.753   0.746   0.746   0.761   0.744   0.746   0.713   0.720   0.725   0.725   0.708   0.657   0.733   0.720   0.721   0.729   0.753   0.668   0.669   0.615   0.608   0.616   0.660   0.745   0.768   0.699   0.726   0.789   0.786   0.818   0.819   0.821   0.778   0.765   0.721   0.708   0.707   0.666   0.627   0.659   0.649   0.664   0.663   0.667   0.725   0.750   0.765   0.800   0.758   0.717   0.754   0.762   0.774   0.796   0.789   0.707   0.764   0.743   0.705   0.696   0.732   0.709   0.713   0.729   0.724   0.705   0.654
   196.30    0.838   0.782   0.741   0.715   0.712   0.687   0.715   0.701   0.745   0.730   0.676   0.637   0.680   0.653   0.625   0.682   0.655   0.651   0.630   0.612   0.659   0.601   0.605   0.608   0.580   0.609   0.670   0.685   0.732   0.720   0.706   0.679   0.698   0.708   0.699   0.765   0.701   0.693   0.770   0.715   0.750   0.755   0.713   0.686   0.618   0.626   0.647   0.593   0.596   0.613   0.599   0.619   0.642   0.660   0.673   0.670   0.683   0.685   0.681   0.685   0.658   0.644   0.645   0.670   0.691   0.760   0.725   0.708   0.715   0.771   0.756   0.781   0.761   0.740   0.708   0.654   0.650   0.654   0.636   0.638   0.668   0.656   0.636   0.668   0.659   0.656   0.671   0.621   0.614   0.645   0.637   0.627   0.647   0.689   0.695   0.692   0.775   0.758   0.798   0.774   0.719   0.787   0.756   0.795   0.795   0.817   0.814   0.874   0.859   0.841   0.837   0.784   0.778   0.778   0.681   0.713   0.774   0.787   0.738   0.762   0.763   0.796   0.780   0.794   0.784   0.827   0.811   0.827   0.762   0.747   0.731   0.712   0.734   0.733   0.750   0.759   0.716   0.729   0.712   0.744   0.693   0.696   0.706   0.634   0.629   0.593   0.609   0.652   0.690   0.749   0.778   0.780   0.758   0.733   0.818   0.855   0.837   0.813   0.777   0.723   0.708   0.700   0.703   0.700   0.668   0.677   0.664   0.691   0.670   0.672   0.771   0.786   0.822   0.840   0.809   0.761   0.752   0.728   0.754   0.755   0.758   0.708   0.732   0.729   0.728   0.723   0.692   0.639   0.691   0.694   0.707   0.688   0.676
   187.00    0.814   0.773   0.699   0.749   0.733   0.714   0.732   0.692   0.683   0.665   0.652   0.648   0.643   0.598   0.619   0.619   0.640   0.638   0.602   0.584   0.587   0.603   0.631   0.621   0.619   0.625   0.665   0.691   0.676   0.707   0.731   0.717   0.731   0.734   0.730   0.734   0.730   0.730   0.799   0.756   0.773   0.757   0.714   0.669   0.607   0.611   0.604   0.587   0.563   0.587   0.622   0.599   0.628   0.656   0.678   0.648   0.665   0.700   0.668   0.699   0.704   0.697   0.686   0.709   0.713   0.750   0.770   0.727   0.729   0.755   0.740   0.755   0.753   0.687   0.674   0.623   0.663   0.626   0.660   0.677   0.699   0.676   0.680   0.672   0.647   0.643   0.648   0.619   0.658   0.641   0.659   0.640   0.653   0.719   0.753   0.712   0.779   0.752   0.776   0.699   0.743   0.740   0.785   0.781   0.776   0.803   0.822   0.808   0.813   0.826   0.782   0.786   0.765   0.736   0.700   0.658   0.725   0.748   0.752   0.767   0.766   0.808   0.794   0.810   0.828   0.809   0.797   0.848   0.816   0.781   0.739   0.741   0.719   0.712   0.745   0.761   0.724   0.724   0.694   0.750   0.719   0.669   0.728   0.666   0.623   0.616   0.603   0.658   0.669   0.694   0.709   0.734   0.750   0.768   0.852   0.853   0.842   0.771   0.801   0.751   0.677   0.670   0.694   0.685   0.693   0.672   0.709   0.720   0.726   0.686   0.776   0.804   0.765   0.822   0.778   0.746   0.721   0.714   0.702   0.685   0.730   0.685   0.700   0.683   0.713   0.688   0.695   0.648   0.718   0.746   0.722   0.693   0.664
   177.70    0.756   0.689   0.701   0.730   0.733   0.702   0.711   0.727   0.718   0.659   0.677   0.708   0.635   0.599   0.636   0.660   0.650   0.635   0.634   0.566   0.628   0.591   0.633   0.641   0.643   0.668   0.680   0.683   0.715   0.747   0.722   0.743   0.705   0.737   0.724   0.681   0.697   0.778   0.760   0.685   0.738   0.718   0.678   0.703   0.643   0.660   0.640   0.632   0.605   0.599   0.573   0.637   0.658   0.648   0.634   0.676   0.678   0.681   0.665   0.707   0.750   0.773   0.771   0.752   0.741   0.756   0.737   0.740   0.741   0.743   0.769   0.686   0.684   0.685   0.682   0.669   0.657   0.661   0.724   0.671   0.687   0.681   0.667   0.725   0.702   0.680   0.656   0.649   0.615   0.636   0.620   0.711   0.694   0.751   0.711   0.723   0.757   0.753   0.767   0.722   0.740   0.756   0.806   0.786   0.761   0.746   0.735   0.781   0.795   0.798   0.798   0.741   0.709   0.688   0.713   0.712   0.688   0.669   0.715   0.732   0.760   0.770   0.769   0.746   0.780   0.810   0.779   0.833   0.839   0.826   0.759   0.714   0.722   0.691   0.769   0.751   0.779   0.683   0.721   0.732   0.735   0.691   0.697   0.663   0.652   0.632   0.624   0.616   0.654   0.681   0.697   0.725   0.758   0.733   0.787   0.798   0.814   0.773   0.753   0.723   0.692   0.665   0.654   0.698   0.746   0.714   0.703   0.753   0.754   0.689   0.718   0.744   0.739   0.791   0.769   0.753   0.759   0.741   0.746   0.748   0.709   0.711   0.693   0.689   0.709   0.659   0.669   0.644   0.692   0.756   0.787   0.762   0.681
   168.40    0.707   0.693   0.681   0.685   0.728   0.735   0.717   0.735   0.712   0.682   0.658   0.688   0.639   0.605   0.612   0.658   0.643   0.663   0.607   0.643   0.680   0.671   0.643   0.692   0.684   0.726   0.706   0.736   0.752   0.752   0.735   0.728   0.750   0.752   0.687   0.680   0.728   0.739   0.755   0.686   0.740   0.702   0.716   0.652   0.666   0.695   0.706   0.612   0.618   0.563   0.552   0.612   0.660   0.669   0.639   0.604   0.660   0.691   0.737   0.765   0.760   0.797   0.782   0.756   0.744   0.721   0.712   0.727   0.730   0.707   0.728   0.716   0.697   0.713   0.701   0.680   0.695   0.709   0.734   0.734   0.700   0.702   0.704   0.697   0.662   0.707   0.702   0.697   0.677   0.650   0.612   0.710   0.727   0.743   0.691   0.681   0.720   0.697   0.709   0.728   0.724   0.763   0.770   0.748   0.739   0.731   0.719   0.791   0.786   0.763   0.789   0.728   0.712   0.727   0.746   0.724   0.739   0.741   0.751   0.727   0.726   0.714   0.711   0.725   0.729   0.744   0.721   0.795   0.772   0.830   0.770   0.719   0.741   0.736   0.688   0.708   0.754   0.710   0.753   0.754   0.682   0.675   0.651   0.659   0.638   0.670   0.667   0.638   0.647   0.666   0.627   0.708   0.697   0.697   0.744   0.738   0.740   0.760   0.728   0.737   0.682   0.691   0.671   0.711   0.701   0.777   0.722   0.756   0.696   0.723   0.754   0.721   0.732   0.714   0.730   0.680   0.687   0.694   0.726   0.770   0.731   0.692   0.689   0.704   0.700   0.686   0.691   0.693   0.709   0.767   0.808   0.716   0.709
   159.10    0.716   0.707   0.687   0.712   0.736   0.762   0.743   0.715   0.716   0.710   0.709   0.717   0.683   0.706   0.698   0.688   0.663   0.631   0.665   0.654   0.640   0.628   0.610   0.636   0.706   0.764   0.783   0.755   0.745   0.788   0.744   0.707   0.778   0.755   0.716   0.700   0.727   0.703   0.723   0.721   0.695   0.679   0.648   0.629   0.640   0.683   0.697   0.602   0.607   0.597   0.608   0.646   0.615   0.650   0.644   0.636   0.675   0.741   0.740   0.745   0.797   0.743   0.770   0.778   0.789   0.761   0.753   0.725   0.673   0.731   0.755   0.718   0.728   0.763   0.734   0.695   0.706   0.706   0.773   0.786   0.726   0.719   0.713   0.676   0.629   0.714   0.739   0.744   0.688   0.655   0.678   0.728   0.740   0.725   0.743   0.754   0.718   0.718   0.665   0.718   0.723   0.710   0.714   0.706   0.769   0.766   0.752   0.778   0.774   0.745   0.770   0.774   0.710   0.714   0.718   0.758   0.735   0.785   0.764   0.775   0.736   0.676   0.660   0.683   0.669   0.672   0.702   0.735   0.768   0.767   0.767   0.790   0.774   0.751   0.715   0.733   0.671   0.707   0.682   0.693   0.764   0.717   0.649   0.652   0.664   0.643   0.653   0.618   0.661   0.625   0.629   0.643   0.668   0.670   0.712   0.687   0.727   0.750   0.699   0.720   0.692   0.723   0.721   0.730   0.792   0.761   0.700   0.715   0.726   0.738   0.710   0.680   0.680   0.680   0.688   0.680   0.646   0.667   0.684   0.723   0.712   0.685   0.663   0.661   0.693   0.659   0.668   0.728   0.732   0.780   0.783   0.702   0.754
   149.80    0.658   0.689   0.695   0.728   0.737   0.699   0.704   0.693   0.743   0.776   0.788   0.758   0.736   0.725   0.746   0.690   0.645   0.676   0.678   0.684   0.676   0.677   0.672   0.670   0.751   0.744   0.763   0.785   0.824   0.788   0.795   0.790   0.771   0.744   0.697   0.691   0.688   0.707   0.693   0.674   0.677   0.694   0.617   0.601   0.605   0.658   0.689   0.616   0.604   0.594   0.610   0.670   0.658   0.647   0.651   0.682   0.662   0.690   0.736   0.783   0.813   0.771   0.760   0.736   0.734   0.762   0.726   0.668   0.657   0.738   0.781   0.759   0.753   0.773   0.727   0.755   0.698   0.694   0.758   0.753   0.744   0.731   0.710   0.636   0.676   0.657   0.644   0.701   0.713   0.719   0.697   0.745   0.756   0.804   0.785   0.722   0.685   0.659   0.699   0.727   0.725   0.715   0.700   0.685   0.722   0.745   0.715   0.759   0.735   0.745   0.789   0.792   0.703   0.723   0.747   0.792   0.784   0.795   0.780   0.795   0.749   0.739   0.701   0.707   0.681   0.692   0.703   0.728   0.755   0.732   0.682   0.713   0.759   0.750   0.705   0.720   0.703   0.638   0.697   0.751   0.712   0.712   0.665   0.636   0.595   0.624   0.611   0.593   0.645   0.663   0.620   0.673   0.619   0.660   0.668   0.713   0.679   0.729   0.737   0.708   0.684   0.722   0.742   0.715   0.727   0.768   0.780   0.735   0.709   0.704   0.661   0.635   0.657   0.642   0.641   0.629   0.627   0.676   0.681   0.680   0.658   0.632   0.602   0.596   0.611   0.642   0.710   0.775   0.795   0.842   0.785   0.728   0.732
   140.50    0.648   0.671   0.676   0.680   0.739   0.730   0.684   0.703   0.766   0.753   0.762   0.751   0.707   0.752   0.763   0.697   0.649   0.671   0.682   0.693   0.711   0.736   0.733   0.732   0.737   0.735   0.758   0.811   0.783   0.850   0.809   0.767   0.722   0.681   0.670   0.694   0.706   0.736   0.733   0.696   0.686   0.661   0.663   0.656   0.651   0.688   0.706   0.658   0.630   0.618   0.610   0.624   0.646   0.679   0.649   0.676   0.686   0.729   0.751   0.778   0.787   0.796   0.735   0.722   0.698   0.753   0.753   0.746   0.761   0.763   0.795   0.793   0.723   0.730   0.776   0.747   0.706   0.735   0.737   0.741   0.794   0.766   0.739   0.699   0.671   0.683   0.655   0.706   0.732   0.758   0.731   0.785   0.788   0.830   0.751   0.712   0.669   0.684   0.722   0.776   0.733   0.727   0.714   0.690   0.721   0.734   0.744   0.758   0.721   0.690   0.731   0.740   0.719   0.705   0.767   0.836   0.781   0.800   0.793   0.747   0.757   0.710   0.684   0.724   0.738   0.745   0.696   0.710   0.690   0.726   0.738   0.690   0.772   0.768   0.721   0.697   0.750   0.684   0.708   0.742   0.735   0.696   0.685   0.634   0.573   0.605   0.653   0.628   0.661   0.633   0.653   0.663   0.670   0.710   0.745   0.719   0.750   0.758   0.760   0.696   0.703   0.732   0.747   0.724   0.718   0.722   0.768   0.746   0.766   0.653   0.658   0.634   0.669   0.599   0.623   0.589   0.628   0.648   0.656   0.669   0.664   0.634   0.659   0.655   0.616   0.646   0.677   0.739   0.801   0.788   0.743   0.718   0.733
   131.20    0.667   0.712   0.668   0.679   0.730   0.718   0.671   0.719   0.706   0.761   0.774   0.757   0.741   0.754   0.685   0.661   0.605   0.650   0.683   0.725   0.759   0.735   0.734   0.762   0.739   0.748   0.753   0.818   0.839   0.888   0.861   0.783   0.753   0.730   0.705   0.739   0.765   0.802   0.720   0.746   0.683   0.694   0.660   0.641   0.707   0.721   0.696   0.682   0.635   0.620   0.605   0.612   0.646   0.679   0.687   0.723   0.689   0.694   0.760   0.742   0.795   0.818   0.788   0.740   0.756   0.762   0.793   0.792   0.840   0.770   0.805   0.769   0.749   0.801   0.795   0.768   0.743   0.749   0.759   0.735   0.781   0.778   0.736   0.706   0.733   0.723   0.683   0.717   0.761   0.721   0.755   0.826   0.781   0.840   0.750   0.744   0.750   0.725   0.697   0.709   0.726   0.785   0.751   0.718   0.696   0.653   0.677   0.660   0.716   0.725   0.679   0.713   0.726   0.714   0.712   0.789   0.810   0.749   0.745   0.747   0.746   0.720   0.729   0.714   0.708   0.696   0.672   0.669   0.697   0.735   0.722   0.756   0.755   0.689   0.705   0.720   0.742   0.738   0.708   0.738   0.678   0.644   0.678   0.651   0.646   0.604   0.630   0.624   0.662   0.644   0.687   0.695   0.730   0.773   0.715   0.701   0.740   0.749   0.765   0.683   0.670   0.699   0.716   0.684   0.682   0.692   0.737   0.793   0.777   0.721   0.668   0.636   0.628   0.594   0.610   0.595   0.619   0.675   0.700   0.646   0.652   0.676   0.646   0.610   0.611   0.666   0.694   0.730   0.755   0.758   0.799   0.787   0.764
   121.90    0.723   0.765   0.723   0.703   0.753   0.719   0.672   0.676   0.709   0.765   0.769   0.730   0.738   0.728   0.673   0.660   0.685   0.658   0.710   0.764   0.757   0.778   0.790   0.823   0.776   0.830   0.805   0.837   0.869   0.846   0.836   0.766   0.757   0.709   0.712   0.747   0.737   0.778   0.760   0.739   0.727   0.718   0.682   0.743   0.709   0.697   0.689   0.616   0.644   0.647   0.626   0.657   0.708   0.759   0.755   0.747   0.735   0.696   0.759   0.756   0.812   0.812   0.735   0.696   0.734   0.743   0.742   0.808   0.776   0.775   0.754   0.751   0.762   0.765   0.771   0.754   0.744   0.720   0.776   0.789   0.747   0.746   0.731   0.707   0.752   0.723   0.755   0.790   0.771   0.727   0.831   0.865   0.849   0.818   0.763   0.741   0.736   0.735   0.757   0.730   0.756   0.744   0.748   0.727   0.673   0.645   0.619   0.628   0.678   0.689   0.718   0.711   0.731   0.785   0.696   0.733   0.785   0.768   0.763   0.745   0.706   0.730   0.744   0.748   0.733   0.769   0.729   0.704   0.716   0.725   0.755   0.771   0.713   0.732   0.741   0.756   0.794   0.787   0.715   0.720   0.685   0.648   0.668   0.687   0.660   0.614   0.621   0.593   0.618   0.648   0.686   0.720   0.727   0.732   0.695   0.707   0.692   0.701   0.695   0.672   0.667   0.659   0.715   0.693   0.670   0.732   0.746   0.754   0.738   0.697   0.665   0.636   0.686   0.662   0.627   0.609   0.607   0.656   0.619   0.653   0.609   0.642   0.626   0.629   0.651   0.674   0.668   0.717   0.742   0.729   0.721   0.729   0.757
   112.60    0.720   0.768   0.761   0.791   0.797   0.722   0.674   0.727   0.721   0.737   0.758   0.738   0.691   0.650   0.689   0.678   0.689   0.689   0.703   0.759   0.754   0.811   0.802   0.830   0.820   0.830   0.827   0.830   0.843   0.793   0.791   0.756   0.710   0.703   0.752   0.816   0.813   0.841   0.813   0.762   0.747   0.739   0.749   0.736   0.749   0.708   0.659   0.665   0.646   0.662   0.671   0.704   0.725   0.754   0.762   0.759   0.778   0.787   0.700   0.726   0.737   0.741   0.727   0.720   0.730   0.759   0.832   0.842   0.796   0.768   0.751   0.764   0.781   0.761   0.722   0.764   0.777   0.782   0.830   0.749   0.756   0.769   0.778   0.712   0.698   0.749   0.763   0.772   0.806   0.772   0.842   0.873   0.811   0.813   0.815   0.761   0.743   0.700   0.701   0.737   0.736   0.723   0.708   0.658   0.650   0.639   0.634   0.593   0.595   0.675   0.674   0.730   0.703   0.700   0.698   0.749   0.738   0.709   0.768   0.747   0.742   0.699   0.733   0.782   0.794   0.778   0.787   0.746   0.718   0.718   0.782   0.788   0.784   0.759   0.777   0.780   0.792   0.766   0.737   0.695   0.670   0.676   0.707   0.669   0.682   0.645   0.652   0.622   0.642   0.667   0.743   0.727   0.752   0.737   0.713   0.732   0.714   0.708   0.699   0.687   0.669   0.651   0.690   0.677   0.712   0.744   0.806   0.767   0.728   0.690   0.682   0.653   0.660   0.688   0.651   0.614   0.625   0.610   0.596   0.603   0.618   0.630   0.655   0.660   0.627   0.629   0.680   0.700   0.706   0.724   0.691   0.709   0.728
   103.30    0.775   0.782   0.761   0.764   0.722   0.707   0.721   0.753   0.670   0.719   0.741   0.738   0.711   0.675   0.663   0.697   0.700   0.730   0.696   0.734   0.798   0.793   0.843   0.822   0.839   0.824   0.812   0.832   0.829   0.781   0.770   0.775   0.730   0.769   0.762   0.820   0.858   0.816   0.837   0.779   0.738   0.718   0.732   0.770   0.699   0.683   0.687   0.706   0.721   0.693   0.689   0.688   0.746   0.745   0.778   0.769   0.762   0.752   0.721   0.727   0.706   0.707   0.718   0.738   0.752   0.789   0.790   0.797   0.780   0.764   0.762   0.783   0.796   0.805   0.718   0.748   0.755   0.800   0.820   0.779   0.751   0.773   0.793   0.798   0.804   0.783   0.812   0.844   0.807   0.822   0.803   0.825   0.842   0.843   0.788   0.745   0.777   0.732   0.705   0.705   0.724   0.704   0.712   0.620   0.625   0.599   0.633   0.610   0.590   0.635   0.642   0.668   0.686   0.732   0.703   0.748   0.713   0.694   0.738   0.684   0.705   0.717   0.717   0.762   0.753   0.761   0.746   0.765   0.719   0.724   0.777   0.773   0.806   0.821   0.792   0.759   0.799   0.743   0.755   0.683   0.661   0.729   0.764   0.702   0.686   0.636   0.670   0.624   0.642   0.722   0.747   0.761   0.732   0.741   0.699   0.722   0.708   0.744   0.770   0.736   0.700   0.715   0.729   0.719   0.669   0.736   0.731   0.754   0.737   0.722   0.698   0.702   0.713   0.717   0.643   0.659   0.619   0.572   0.575   0.629   0.642   0.658   0.609   0.649   0.653   0.674   0.633   0.668   0.684   0.717   0.729   0.724   0.719
    94.00    0.743   0.739   0.720   0.787   0.747   0.707   0.674   0.717   0.737   0.661   0.701   0.678   0.706   0.669   0.650   0.679   0.712   0.766   0.792   0.728   0.749   0.799   0.798   0.841   0.807   0.841   0.821   0.856   0.844   0.780   0.720   0.744   0.760   0.764   0.767   0.840   0.807   0.813   0.835   0.812   0.731   0.689   0.737   0.749   0.714   0.675   0.665   0.635   0.706   0.688   0.677   0.677   0.763   0.750   0.764   0.732   0.747   0.756   0.751   0.703   0.696   0.740   0.718   0.741   0.802   0.794   0.760   0.733   0.720   0.716   0.731   0.764   0.769   0.752   0.736   0.788   0.783   0.829   0.869   0.875   0.822   0.805   0.808   0.851   0.848   0.857   0.848   0.836   0.809   0.813   0.790   0.805   0.795   0.796   0.751   0.742   0.694   0.719   0.713   0.732   0.719   0.694   0.658   0.635   0.595   0.623   0.609   0.635   0.625   0.618   0.683   0.663   0.704   0.681   0.673   0.686   0.741   0.678   0.647   0.682   0.707   0.696   0.711   0.723   0.703   0.707   0.740   0.752   0.730   0.780   0.765   0.782   0.814   0.803   0.776   0.748   0.793   0.824   0.786   0.759   0.737   0.744   0.731   0.744   0.707   0.698   0.670   0.696   0.670   0.727   0.768   0.811   0.747   0.693   0.696   0.710   0.747   0.817   0.777   0.734   0.724   0.685   0.702   0.693   0.693   0.736   0.716   0.759   0.745   0.699   0.681   0.725   0.705   0.719   0.675   0.659   0.667   0.604   0.644   0.602   0.600   0.621   0.643   0.672   0.662   0.640   0.681   0.644   0.722   0.682   0.684   0.706   0.692
    84.70    0.710   0.715   0.763   0.763   0.761   0.715   0.690   0.676   0.727   0.696   0.680   0.680   0.673   0.638   0.655   0.719   0.708   0.704   0.748   0.754   0.742   0.721   0.758   0.823   0.827   0.870   0.857   0.842   0.828   0.767   0.740   0.727   0.748   0.755   0.768   0.833   0.825   0.805   0.806   0.779   0.759   0.729   0.733   0.742   0.730   0.715   0.706   0.663   0.673   0.716   0.676   0.734   0.810   0.763   0.772   0.775   0.728   0.729   0.731   0.729   0.727   0.711   0.745   0.741   0.797   0.774   0.752   0.746   0.712   0.720   0.714   0.701   0.737   0.731   0.716   0.800   0.849   0.865   0.907   0.835   0.824   0.807   0.818   0.879   0.883   0.892   0.812   0.821   0.818   0.750   0.740   0.738   0.789   0.783   0.780   0.730   0.676   0.709   0.676   0.656   0.709   0.685   0.653   0.615   0.613   0.640   0.615   0.611   0.605   0.621   0.639   0.676   0.634   0.639   0.631   0.674   0.690   0.706   0.658   0.660   0.702   0.717   0.692   0.659   0.660   0.669   0.661   0.693   0.696   0.688   0.716   0.774   0.760   0.808   0.793   0.763   0.786   0.818   0.818   0.775   0.787   0.764   0.783   0.747   0.718   0.713   0.724   0.714   0.689   0.713   0.752   0.813   0.771   0.694   0.684   0.714   0.731   0.772   0.762   0.744   0.742   0.703   0.736   0.703   0.694   0.686   0.698   0.765   0.739   0.747   0.742   0.660   0.672   0.684   0.662   0.643   0.637   0.680   0.708   0.662   0.642   0.636   0.652   0.627   0.691   0.681   0.704   0.716   0.698   0.735   0.713   0.681   0.731
    75.40    0.706   0.733   0.761   0.809   0.772   0.720   0.661   0.650   0.677   0.710   0.695   0.689   0.707   0.659   0.664   0.683   0.668   0.686   0.726   0.782   0.730   0.669   0.759   0.772   0.784   0.782   0.761   0.797   0.833   0.804   0.732   0.729   0.721   0.704   0.785   0.791   0.816   0.830   0.824   0.812   0.773   0.779   0.752   0.761   0.767   0.769   0.774   0.703   0.691   0.690   0.697   0.743   0.809   0.767   0.758   0.750   0.753   0.793   0.756   0.728   0.731   0.741   0.755   0.780   0.789   0.780   0.778   0.747   0.754   0.721   0.734   0.750   0.710   0.710   0.793   0.777   0.823   0.908   0.898   0.858   0.849   0.846   0.823   0.834   0.861   0.821   0.819   0.838   0.786   0.783   0.733   0.711   0.759   0.727   0.743   0.756   0.774   0.706   0.664   0.637   0.681   0.672   0.652   0.641   0.590   0.585   0.627   0.605   0.609   0.632   0.643   0.613   0.641   0.628   0.702   0.701   0.671   0.714   0.729   0.734   0.686   0.704   0.674   0.674   0.658   0.708   0.645   0.696   0.714   0.725   0.718   0.711   0.729   0.780   0.727   0.774   0.846   0.836   0.791   0.813   0.824   0.818   0.780   0.742   0.733   0.727   0.728   0.710   0.713   0.746   0.780   0.781   0.788   0.776   0.750   0.726   0.703   0.724   0.721   0.708   0.722   0.738   0.718   0.688   0.680   0.705   0.686   0.755   0.777   0.710   0.710   0.689   0.645   0.669   0.678   0.632   0.630   0.667   0.647   0.659   0.662   0.702   0.647   0.682   0.684   0.738   0.748   0.733   0.734   0.721   0.758   0.763   0.760
    66.10    0.742   0.697   0.790   0.792   0.762   0.763   0.658   0.645   0.639   0.668   0.642   0.663   0.665   0.691   0.717   0.675   0.643   0.666   0.737   0.740   0.736   0.686   0.727   0.699   0.758   0.778   0.769   0.771   0.774   0.839   0.809   0.794   0.761   0.744   0.756   0.806   0.783   0.804   0.815   0.843   0.807   0.819   0.775   0.787   0.758   0.734   0.763   0.699   0.665   0.653   0.692   0.719   0.743   0.789   0.774   0.690   0.738   0.782   0.770   0.750   0.741   0.735   0.718   0.783   0.788   0.758   0.787   0.728   0.691   0.716   0.777   0.745   0.717   0.705   0.745   0.823   0.831   0.863   0.865   0.859   0.812   0.857   0.872   0.889   0.889   0.848   0.799   0.823   0.812   0.783   0.758   0.721   0.756   0.755   0.776   0.773   0.779   0.716   0.724   0.681   0.643   0.668   0.646   0.631   0.626   0.600   0.616   0.638   0.617   0.595   0.631   0.667   0.611   0.660   0.674   0.692   0.712   0.746   0.723   0.712   0.657   0.680   0.658   0.702   0.709   0.682   0.686   0.683   0.733   0.736   0.705   0.712   0.733   0.759   0.764   0.781   0.793   0.807   0.763   0.796   0.863   0.811   0.758   0.752   0.751   0.754   0.740   0.733   0.725   0.743   0.753   0.787   0.822   0.772   0.739   0.753   0.741   0.734   0.683   0.720   0.707   0.731   0.732   0.684   0.659   0.694   0.697   0.759   0.735   0.714   0.727   0.682   0.657   0.614   0.614   0.591   0.654   0.666   0.640   0.633   0.670   0.672   0.703   0.728   0.744   0.756   0.766   0.727   0.737   0.664   0.721   0.735   0.759
    56.80    0.748   0.775   0.759   0.736   0.683   0.718   0.753   0.674   0.629   0.648   0.650   0.641   0.662   0.726   0.700   0.653   0.637   0.679   0.722   0.703   0.725   0.704   0.722   0.717   0.707   0.744   0.739   0.774   0.774   0.791   0.806   0.753   0.774   0.802   0.796   0.803   0.796   0.818   0.826   0.850   0.776   0.746   0.741   0.770   0.714   0.704   0.697   0.691   0.703   0.636   0.640   0.677   0.703   0.698   0.748   0.744   0.763   0.760   0.720   0.693   0.683   0.685   0.726   0.754   0.771   0.791   0.752   0.754   0.698   0.703   0.698   0.706   0.681   0.727   0.738   0.792   0.877   0.848   0.854   0.855   0.811   0.829   0.868   0.900   0.880   0.882   0.832   0.876   0.801   0.807   0.807   0.778   0.775   0.751   0.744   0.719   0.764   0.801   0.760   0.738   0.706   0.656   0.640   0.645   0.681   0.645   0.661   0.660   0.655   0.647   0.612   0.621   0.614   0.651   0.677   0.690   0.693   0.699   0.757   0.710   0.721   0.700   0.689   0.724   0.740   0.705   0.716   0.670   0.709   0.751   0.740   0.748   0.689   0.779   0.784   0.853   0.779   0.797   0.789   0.795   0.811   0.784   0.775   0.812   0.785   0.801   0.760   0.712   0.714   0.718   0.763   0.714   0.786   0.773   0.801   0.797   0.784   0.716   0.694   0.703   0.705   0.752   0.714   0.665   0.662   0.675   0.672   0.724   0.693   0.728   0.719   0.691   0.627   0.625   0.624   0.605   0.618   0.633   0.633   0.609   0.674   0.684   0.699   0.752   0.743   0.759   0.775   0.742   0.717   0.695   0.695   0.688   0.714
    47.50    0.744   0.770   0.781   0.716   0.737   0.752   0.735   0.743   0.655   0.652   0.691   0.670   0.670   0.724   0.686   0.656   0.694   0.709   0.676   0.677   0.693   0.712   0.674   0.684   0.681   0.686   0.685   0.762   0.773   0.773   0.798   0.805   0.774   0.808   0.847   0.817   0.810   0.799   0.778   0.814   0.763   0.762   0.725   0.743   0.721   0.712   0.696   0.697   0.647   0.658   0.680   0.707   0.674   0.729   0.739   0.740   0.769   0.819   0.790   0.695   0.678   0.688   0.711   0.738   0.760   0.772   0.744   0.726   0.655   0.691   0.654   0.678   0.705   0.709   0.740   0.762   0.824   0.853   0.874   0.847   0.824   0.816   0.874   0.862   0.868   0.856   0.863   0.895   0.845   0.836   0.813   0.799   0.732   0.729   0.740   0.755   0.783   0.779   0.758   0.747   0.715   0.688   0.685   0.675   0.648   0.633   0.652   0.640   0.637   0.649   0.688   0.642   0.611   0.610   0.673   0.710   0.686   0.721   0.742   0.714   0.722   0.751   0.760   0.784   0.710   0.736   0.687   0.660   0.703   0.686   0.661   0.701   0.735   0.802   0.771   0.816   0.818   0.850   0.803   0.816   0.814   0.808   0.816   0.805   0.829   0.783   0.738   0.731   0.703   0.742   0.714   0.729   0.779   0.766   0.778   0.759   0.731   0.687   0.634   0.639   0.636   0.675   0.679   0.638   0.595   0.661   0.660   0.697   0.688   0.720   0.725   0.676   0.643   0.626   0.618   0.600   0.604   0.591   0.635   0.642   0.664   0.686   0.727   0.740   0.775   0.738   0.757   0.744   0.689   0.698   0.650   0.657   0.689
    38.20    0.724   0.771   0.787   0.739   0.741   0.710   0.757   0.736   0.667   0.652   0.703   0.706   0.699   0.698   0.660   0.656   0.661   0.710   0.671   0.677   0.706   0.684   0.694   0.663   0.697   0.717   0.704   0.732   0.781   0.805   0.844   0.826   0.814   0.789   0.850   0.818   0.810   0.809   0.834   0.819   0.748   0.716   0.748   0.709   0.734   0.748   0.699   0.671   0.671   0.670   0.673   0.672   0.715   0.728   0.766   0.762   0.794   0.844   0.779   0.731   0.678   0.671   0.681   0.652   0.707   0.722   0.755   0.734   0.639   0.641   0.671   0.708   0.716   0.722   0.720   0.692   0.749   0.831   0.830   0.790   0.835   0.871   0.845   0.834   0.865   0.895   0.875   0.904   0.821   0.845   0.861   0.809   0.731   0.710   0.743   0.740   0.715   0.761   0.752   0.742   0.697   0.686   0.619   0.626   0.646   0.636   0.638   0.651   0.617   0.624   0.665   0.664   0.659   0.718   0.689   0.703   0.731   0.777   0.752   0.747   0.730   0.786   0.793   0.755   0.711   0.732   0.733   0.686   0.691   0.694   0.614   0.685   0.713   0.724   0.754   0.781   0.799   0.834   0.787   0.778   0.802   0.825   0.811   0.825   0.853   0.765   0.752   0.681   0.705   0.727   0.675   0.730   0.739   0.772   0.748   0.721   0.677   0.671   0.620   0.590   0.638   0.624   0.656   0.631   0.596   0.626   0.679   0.726   0.713   0.706   0.725   0.679   0.642   0.622   0.647   0.595   0.587   0.573   0.616   0.620   0.722   0.703   0.758   0.724   0.721   0.778   0.755   0.740   0.663   0.690   0.653   0.656   0.669
    28.90    0.718   0.710   0.734   0.706   0.705   0.722   0.745   0.782   0.666   0.670   0.727   0.743   0.741   0.683   0.687   0.649   0.669   0.678   0.697   0.674   0.690   0.719   0.683   0.654   0.692   0.729   0.714   0.745   0.764   0.746   0.796   0.788   0.797   0.815   0.814   0.813   0.814   0.774   0.809   0.826   0.792   0.753   0.749   0.765   0.742   0.717   0.733   0.703   0.707   0.636   0.633   0.658   0.666   0.733   0.781   0.750   0.791   0.768   0.750   0.737   0.712   0.708   0.700   0.722   0.697   0.698   0.741   0.693   0.718   0.724   0.707   0.722   0.740   0.709   0.705   0.713   0.795   0.829   0.800   0.849   0.843   0.878   0.885   0.848   0.868   0.877   0.859   0.868   0.825   0.850   0.861   0.771   0.802   0.780   0.720   0.747   0.689   0.716   0.716   0.724   0.742   0.694   0.688   0.658   0.635   0.626   0.596   0.595   0.614   0.645   0.658   0.727   0.700   0.737   0.679   0.660   0.762   0.763   0.778   0.784   0.780   0.784   0.743   0.702   0.657   0.707   0.783   0.721   0.752   0.760   0.695   0.703   0.671   0.711   0.740   0.715   0.695   0.747   0.759   0.762   0.784   0.803   0.811   0.803   0.807   0.785   0.720   0.696   0.714   0.719   0.675   0.736   0.723   0.747   0.797   0.693   0.677   0.648   0.613   0.560   0.577   0.646   0.655   0.645   0.617   0.618   0.667   0.676   0.706   0.723   0.711   0.682   0.674   0.640   0.573   0.600   0.619   0.636   0.600   0.626   0.688   0.668   0.717   0.707   0.719   0.741   0.766   0.665   0.662   0.661   0.659   0.683   0.698
    19.60    0.767   0.746   0.687   0.705   0.702   0.727   0.739   0.694   0.724   0.672   0.735   0.745   0.719   0.720   0.649   0.637   0.659   0.719   0.675   0.718   0.694   0.658   0.631   0.656   0.645   0.668   0.662   0.711   0.727   0.734   0.784   0.797   0.767   0.807   0.911   0.844   0.789   0.802   0.791   0.748   0.753   0.737   0.791   0.796   0.789   0.771   0.716   0.704   0.708   0.654   0.652   0.642   0.677   0.706   0.701   0.747   0.722   0.750   0.732   0.688   0.696   0.698   0.733   0.746   0.748   0.686   0.717   0.752   0.752   0.767   0.747   0.736   0.788   0.751   0.724   0.736   0.815   0.806   0.802   0.815   0.850   0.835   0.811   0.807   0.885   0.885   0.913   0.869   0.865   0.841   0.885   0.792   0.772   0.767   0.775   0.755   0.685   0.695   0.695   0.739   0.732   0.697   0.672   0.689   0.639   0.571   0.592   0.614   0.610   0.646   0.688   0.714   0.760   0.766   0.740   0.769   0.772   0.746   0.782   0.820   0.785   0.784   0.701   0.685   0.720   0.737   0.706   0.726   0.699   0.666   0.689   0.687   0.706   0.710   0.744   0.713   0.766   0.703   0.713   0.746   0.772   0.745   0.804   0.824   0.797   0.799   0.758   0.731   0.704   0.665   0.693   0.661   0.700   0.716   0.799   0.712   0.679   0.610   0.543   0.571   0.575   0.644   0.622   0.669   0.649   0.645   0.649   0.652   0.672   0.741   0.727   0.679   0.641   0.611   0.641   0.659   0.641   0.610   0.607   0.640   0.670   0.686   0.689   0.733   0.736   0.771   0.762   0.761   0.701   0.725   0.703   0.726   0.737
    10.30    0.735   0.719   0.721   0.730   0.747   0.712   0.698   0.717   0.727   0.709   0.711   0.713   0.715   0.695   0.690   0.681   0.674   0.717   0.688   0.690   0.635   0.644   0.653   0.633   0.667   0.601   0.658   0.660   0.723   0.762   0.801   0.731   0.779   0.808   0.855   0.799   0.780   0.799   0.778   0.797   0.739   0.705   0.784   0.799   0.806   0.754   0.740   0.733   0.691   0.663   0.682   0.694   0.659   0.600   0.655   0.692   0.698   0.710   0.706   0.703   0.657   0.644   0.689   0.726   0.757   0.792   0.749   0.758   0.739   0.788   0.758   0.792   0.784   0.765   0.811   0.759   0.795   0.772   0.808   0.798   0.822   0.831   0.774   0.819   0.829   0.894   0.897   0.878   0.868   0.814   0.833   0.794   0.799   0.764   0.772   0.713   0.722   0.706   0.729   0.738   0.725   0.732   0.725   0.731   0.650   0.635   0.629   0.621   0.658   0.704   0.747   0.773   0.799   0.767   0.814   0.772   0.785   0.807   0.792   0.827   0.853   0.821   0.774   0.738   0.711   0.726   0.694   0.722   0.646   0.649   0.640   0.648   0.642   0.650   0.677   0.672   0.706   0.677   0.651   0.721   0.769   0.719   0.773   0.738   0.757   0.751   0.762   0.713   0.672   0.657   0.714   0.750   0.733   0.711   0.750   0.739   0.680   0.610   0.598   0.550   0.563   0.597   0.615   0.612   0.662   0.627   0.604   0.676   0.661   0.693   0.665   0.619   0.631   0.638   0.679   0.654   0.641   0.620   0.606   0.653   0.645   0.664   0.743   0.723   0.739   0.686   0.687   0.721   0.748   0.742   0.708   0.738   0.773
     1.00    0.716   0.723   0.686   0.708   0.739   0.729   0.687   0.710   0.750   0.718   0.739   0.747   0.742   0.734   0.775   0.749   0.708   0.697   0.666   0.691   0.631   0.630   0.628   0.634   0.604   0.634   0.618   0.675   0.713   0.774   0.766   0.740   0.713   0.757   0.786   0.769   0.773   0.739   0.758   0.739   0.723   0.737   0.795   0.782   0.795   0.738   0.740   0.729   0.714   0.717   0.713   0.730   0.695   0.647   0.662   0.652   0.661   0.666   0.725   0.700   0.638   0.650   0.640   0.720   0.761   0.796   0.766   0.745   0.753   0.802   0.795   0.804   0.798   0.797   0.808   0.790   0.829   0.806   0.782   0.850   0.847   0.848   0.854   0.827   0.814   0.872   0.898   0.881   0.795   0.785   0.813   0.754   0.802   0.780   0.698   0.741   0.707   0.741   0.741   0.746   0.729   0.744   0.713   0.724   0.676   0.673   0.712   0.690   0.659   0.720   0.728   0.735   0.796   0.806   0.851   0.832   0.859   0.876   0.851   0.845   0.803   0.791   0.823   0.780   0.724   0.714   0.762   0.739   0.732   0.744   0.738   0.649   0.657   0.688   0.635   0.627   0.660   0.658   0.679   0.737   0.769   0.759   0.750   0.783   0.771   0.810   0.723   0.698   0.644   0.665   0.698   0.754   0.754   0.699   0.719   0.756   0.692   0.651   0.624   0.610   0.606   0.648   0.641   0.662   0.675   0.687   0.697   0.691   0.642   0.665   0.627   0.628   0.629   0.632   0.598   0.634   0.616   0.596   0.635   0.658   0.635   0.677   0.700   0.720   0.700   0.676   0.688   0.703   0.703   0.703   0.711   0.757   0.745

   Height   Standard deviation at grid points for the v component:
   354.40    0.564   0.590   0.564   0.566   0.572   0.546   0.553   0.560   0.578   0.590   0.579   0.565   0.587   0.579   0.595   0.582   0.540   0.499   0.529   0.561   0.555   0.578   0.535   0.550   0.568   0.553   0.555   0.558   0.572   0.579   0.564   0.580   0.557   0.533   0.527   0.551   0.562   0.571   0.580   0.571   0.596   0.595   0.580   0.585   0.553   0.561   0.573   0.553   0.508   0.535   0.505   0.519   0.561   0.510   0.531   0.555   0.531   0.581   0.587   0.571   0.614   0.625   0.653   0.615   0.624   0.638   0.605   0.595   0.623   0.596   0.616   0.591   0.581   0.592   0.601   0.570   0.603   0.574   0.530   0.514   0.565   0.570   0.533   0.493   0.492   0.489   0.494   0.524   0.522   0.535   0.579   0.600   0.594   0.588   0.573   0.590   0.556   0.547   0.547   0.570   0.575   0.578   0.568   0.588   0.600   0.586   0.600   0.612   0.652   0.602   0.602   0.616   0.588   0.581   0.604   0.568   0.547   0.542   0.508   0.508   0.520   0.542   0.520   0.533   0.538   0.520   0.545   0.557   0.566   0.575   0.552   0.522   0.517   0.535   0.535   0.556   0.565   0.586   0.601   0.592   0.614   0.567   0.575   0.579   0.585   0.574   0.589   0.553   0.563   0.568   0.553   0.569   0.608   0.615   0.598   0.562   0.589   0.580   0.621   0.649   0.606   0.663   0.662   0.662   0.665   0.661   0.653   0.626   0.576   0.595   0.564   0.595   0.545   0.588   0.570   0.559   0.515   0.575   0.586   0.537   0.542   0.526   0.566   0.545   0.562   0.560   0.584   0.590   0.612   0.590   0.599   0.613   0.613
   345.10    0.571   0.574   0.573   0.555   0.572   0.550   0.559   0.570   0.595   0.616   0.608   0.580   0.615   0.610   0.589   0.577   0.557   0.525   0.524   0.547   0.567   0.561   0.552   0.572   0.559   0.555   0.548   0.540   0.555   0.561   0.551   0.574   0.572   0.549   0.537   0.546   0.539   0.536   0.555   0.578   0.598   0.583   0.574   0.564   0.573   0.551   0.547   0.505   0.488   0.490   0.493   0.523   0.521   0.532   0.513   0.554   0.546   0.574   0.558   0.574   0.608   0.618   0.654   0.632   0.654   0.635   0.632   0.638   0.590   0.616   0.623   0.588   0.584   0.595   0.602   0.589   0.604   0.551   0.562   0.557   0.568   0.565   0.549   0.517   0.522   0.518   0.518   0.531   0.516   0.554   0.559   0.574   0.597   0.571   0.580   0.562   0.549   0.555   0.574   0.553   0.574   0.584   0.582   0.574   0.570   0.576   0.595   0.601   0.630   0.629   0.605   0.615   0.608   0.596   0.592   0.609   0.583   0.532   0.497   0.505   0.529   0.521   0.552   0.571   0.509   0.518   0.545   0.560   0.577   0.565   0.539   0.540   0.545   0.544   0.542   0.564   0.550   0.570   0.573   0.574   0.625   0.566   0.566   0.587   0.607   0.607   0.567   0.555   0.552   0.585   0.541   0.558   0.576   0.587   0.587   0.573   0.549   0.594   0.603   0.607   0.635   0.638   0.682   0.653   0.638   0.641   0.685   0.651   0.630   0.589   0.573   0.583   0.584   0.552   0.570   0.562   0.544   0.538   0.546   0.547   0.555   0.574   0.561   0.571   0.531   0.569   0.573   0.599   0.633   0.612   0.651   0.639   0.627
   335.80    0.594   0.574   0.546   0.526   0.575   0.573   0.559   0.555   0.578   0.621   0.607   0.566   0.591   0.613   0.595   0.570   0.576   0.564   0.554   0.541   0.592   0.567   0.559   0.560   0.537   0.549   0.557   0.545   0.563   0.579   0.588   0.532   0.562   0.572   0.556   0.566   0.565   0.517   0.537   0.544   0.575   0.578   0.586   0.550   0.556   0.564   0.538   0.510   0.507   0.538   0.524   0.541   0.530   0.517   0.540   0.552   0.550   0.540   0.588   0.570   0.617   0.619   0.636   0.629   0.630   0.616   0.628   0.630   0.637   0.645   0.624   0.606   0.603   0.613   0.590   0.601   0.596   0.569   0.580   0.592   0.553   0.548   0.531   0.486   0.504   0.524   0.535   0.549   0.560   0.532   0.537   0.561   0.593   0.607   0.568   0.559   0.582   0.586   0.560   0.548   0.532   0.561   0.591   0.579   0.556   0.558   0.583   0.595   0.611   0.616   0.593   0.609   0.587   0.585   0.604   0.596   0.577   0.562   0.555   0.554   0.542   0.537   0.575   0.579   0.556   0.552   0.557   0.548   0.565   0.527   0.530   0.547   0.525   0.561   0.576   0.580   0.556   0.588   0.578   0.561   0.565   0.606   0.608   0.579   0.593   0.586   0.545   0.530   0.552   0.568   0.570   0.555   0.545   0.595   0.615   0.585   0.583   0.541   0.582   0.619   0.620   0.623   0.676   0.677   0.652   0.643   0.669   0.634   0.627   0.632   0.611   0.605   0.596   0.591   0.570   0.580   0.540   0.555   0.576   0.584   0.587   0.566   0.543   0.542   0.554   0.568   0.572   0.592   0.642   0.648   0.642   0.645   0.662
   326.50    0.585   0.562   0.577   0.576   0.568   0.547   0.552   0.565   0.592   0.620   0.607   0.603   0.625   0.625   0.606   0.575   0.566   0.548   0.564   0.571   0.546   0.579   0.544   0.573   0.557   0.572   0.534   0.497   0.529   0.539   0.598   0.538   0.543   0.561   0.565   0.555   0.523   0.507   0.536   0.556   0.555   0.578   0.572   0.540   0.521   0.539   0.534   0.520   0.527   0.551   0.519   0.532   0.555   0.560   0.537   0.522   0.541   0.568   0.604   0.638   0.630   0.670   0.659   0.639   0.608   0.618   0.584   0.598   0.597   0.601   0.619   0.594   0.597   0.593   0.602   0.582   0.611   0.554   0.535   0.561   0.544   0.521   0.524   0.502   0.513   0.528   0.533   0.525   0.542   0.537   0.540   0.566   0.573   0.566   0.543   0.547   0.560   0.594   0.545   0.533   0.538   0.568   0.571   0.580   0.612   0.576   0.564   0.579   0.595   0.597   0.613   0.610   0.586   0.596   0.613   0.591   0.547   0.579   0.577   0.539   0.518   0.533   0.563   0.554   0.612   0.568   0.563   0.558   0.583   0.538   0.543   0.533   0.546   0.578   0.584   0.573   0.560   0.576   0.560   0.551   0.563   0.593   0.593   0.585   0.586   0.543   0.574   0.550   0.547   0.570   0.580   0.569   0.570   0.615   0.601   0.588   0.567   0.564   0.585   0.597   0.624   0.660   0.665   0.713   0.677   0.665   0.647   0.654   0.615   0.590   0.604   0.593   0.599   0.580   0.567   0.577   0.571   0.565   0.578   0.601   0.600   0.564   0.531   0.540   0.539   0.586   0.574   0.593   0.605   0.619   0.648   0.649   0.617
[...]
   103.30    0.355   0.354   0.342   0.352   0.358   0.357   0.352   0.351   0.344   0.353   0.363   0.364   0.348   0.351   0.358   0.353   0.354   0.348   0.342   0.345   0.359   0.354   0.345   0.356   0.357   0.359   0.358   0.346   0.345   0.344   0.347   0.341   0.347   0.350   0.347   0.339   0.345   0.354   0.355   0.339   0.339   0.334   0.341   0.351   0.358   0.359   0.367   0.350   0.356   0.359   0.358   0.357   0.356   0.357   0.350   0.360   0.353   0.354   0.364   0.362   0.354   0.352   0.349   0.350   0.341   0.342   0.349   0.363   0.348   0.349   0.347   0.354   0.352   0.352   0.350   0.361   0.362   0.367   0.360   0.355   0.345   0.359   0.354   0.364   0.367   0.369   0.362   0.360   0.360   0.368   0.363   0.358   0.365   0.359   0.357   0.368   0.349   0.350   0.340   0.349   0.350   0.349   0.342   0.345   0.338   0.342   0.339   0.334   0.329   0.351   0.350   0.332   0.349   0.349   0.348   0.348   0.362   0.354   0.346   0.352   0.345   0.337   0.332   0.355   0.359   0.359   0.358   0.352   0.352   0.344   0.346   0.348   0.347   0.334   0.350   0.356   0.354   0.349   0.351   0.366   0.355   0.358   0.368   0.366   0.362   0.361   0.370   0.359   0.356   0.365   0.361   0.373   0.364   0.355   0.369   0.360   0.375   0.358   0.358   0.342   0.355   0.347   0.356   0.367   0.368   0.369   0.371   0.373   0.369   0.375   0.361   0.350   0.360   0.348   0.353   0.351   0.348   0.344   0.351   0.355   0.344   0.349   0.349   0.351   0.354   0.343   0.348   0.354   0.360   0.362   0.378   0.364   0.369
    94.00    0.358   0.360   0.357   0.359   0.357   0.352   0.349   0.355   0.347   0.362   0.355   0.358   0.355   0.344   0.355   0.359   0.354   0.350   0.355   0.349   0.362   0.362   0.351   0.357   0.373   0.355   0.351   0.348   0.347   0.351   0.348   0.348   0.344   0.343   0.355   0.350   0.341   0.345   0.345   0.339   0.323   0.334   0.333   0.328   0.342   0.355   0.370   0.367   0.359   0.357   0.353   0.365   0.361   0.349   0.336   0.356   0.356   0.354   0.356   0.352   0.358   0.355   0.358   0.351   0.347   0.332   0.342   0.358   0.355   0.358   0.364   0.363   0.359   0.342   0.350   0.361   0.352   0.362   0.362   0.355   0.352   0.345   0.356   0.365   0.366   0.367   0.365   0.365   0.373   0.376   0.359   0.355   0.360   0.360   0.342   0.354   0.353   0.350   0.335   0.335   0.347   0.338   0.332   0.332   0.345   0.330   0.332   0.333   0.335   0.347   0.344   0.339   0.346   0.355   0.348   0.344   0.352   0.347   0.343   0.350   0.346   0.347   0.349   0.348   0.353   0.348   0.342   0.334   0.334   0.347   0.337   0.340   0.350   0.338   0.345   0.357   0.363   0.367   0.364   0.359   0.375   0.373   0.367   0.355   0.364   0.365   0.369   0.368   0.363   0.364   0.364   0.368   0.376   0.370   0.372   0.365   0.368   0.363   0.345   0.349   0.348   0.361   0.369   0.361   0.368   0.370   0.353   0.369   0.368   0.359   0.360   0.356   0.364   0.350   0.356   0.358   0.347   0.336   0.344   0.342   0.349   0.350   0.346   0.348   0.350   0.349   0.348   0.347   0.353   0.363   0.367   0.375   0.369
    84.70    0.353   0.333   0.352   0.348   0.352   0.354   0.358   0.357   0.363   0.355   0.370   0.353   0.354   0.353   0.345   0.354   0.353   0.364   0.360   0.352   0.360   0.366   0.360   0.354   0.367   0.360   0.361   0.335   0.354   0.339   0.344   0.340   0.341   0.339   0.340   0.345   0.347   0.347   0.350   0.342   0.321   0.334   0.336   0.345   0.348   0.352   0.355   0.360   0.365   0.360   0.360   0.359   0.352   0.342   0.338   0.348   0.359   0.357   0.349   0.353   0.353   0.346   0.345   0.356   0.363   0.352   0.351   0.347   0.354   0.348   0.350   0.357   0.344   0.348   0.349   0.356   0.368   0.348   0.357   0.351   0.363   0.356   0.358   0.373   0.369   0.367   0.362   0.356   0.368   0.359   0.372   0.350   0.355   0.351   0.353   0.338   0.349   0.338   0.334   0.338   0.339   0.336   0.333   0.334   0.340   0.339   0.345   0.336   0.335   0.347   0.348   0.350   0.347   0.346   0.349   0.346   0.341   0.337   0.348   0.341   0.338   0.350   0.352   0.358   0.348   0.341   0.340   0.342   0.336   0.338   0.346   0.349   0.343   0.351   0.351   0.357   0.364   0.355   0.359   0.367   0.371   0.369   0.370   0.361   0.365   0.363   0.356   0.368   0.373   0.368   0.368   0.366   0.378   0.383   0.367   0.356   0.362   0.357   0.353   0.351   0.353   0.352   0.365   0.359   0.355   0.372   0.368   0.371   0.365   0.362   0.351   0.356   0.355   0.366   0.374   0.369   0.364   0.358   0.345   0.348   0.361   0.362   0.361   0.355   0.349   0.345   0.341   0.350   0.353   0.369   0.366   0.371   0.369
    75.40    0.355   0.344   0.342   0.331   0.346   0.349   0.355   0.365   0.366   0.363   0.367   0.352   0.343   0.356   0.345   0.366   0.365   0.368   0.358   0.356   0.356   0.359   0.365   0.362   0.369   0.364   0.360   0.350   0.355   0.343   0.346   0.355   0.346   0.338   0.339   0.355   0.347   0.353   0.347   0.342   0.340   0.328   0.331   0.350   0.349   0.356   0.362   0.363   0.363   0.356   0.364   0.347   0.343   0.333   0.346   0.360   0.365   0.363   0.364   0.355   0.361   0.354   0.342   0.351   0.351   0.352   0.346   0.347   0.349   0.338   0.352   0.356   0.352   0.354   0.356   0.365   0.372   0.368   0.354   0.354   0.351   0.361   0.372   0.366   0.363   0.367   0.358   0.357   0.355   0.372   0.361   0.364   0.344   0.328   0.334   0.341   0.355   0.348   0.347   0.339   0.340   0.330   0.330   0.322   0.346   0.344   0.349   0.337   0.333   0.339   0.350   0.344   0.345   0.352   0.336   0.345   0.335   0.334   0.346   0.343   0.348   0.345   0.357   0.359   0.361   0.348   0.342   0.348   0.340   0.351   0.348   0.354   0.345   0.352   0.363   0.366   0.362   0.359   0.366   0.368   0.373   0.358   0.368   0.356   0.362   0.352   0.351   0.360   0.352   0.360   0.370   0.374   0.377   0.372   0.363   0.363   0.353   0.345   0.336   0.346   0.345   0.352   0.352   0.347   0.369   0.367   0.364   0.369   0.372   0.362   0.365   0.355   0.361   0.366   0.355   0.359   0.350   0.355   0.352   0.354   0.364   0.350   0.350   0.353   0.349   0.343   0.347   0.338   0.358   0.361   0.367   0.371   0.373
    66.10    0.347   0.341   0.346   0.336   0.348   0.354   0.363   0.362   0.353   0.364   0.346   0.342   0.344   0.359   0.367   0.361   0.371   0.355   0.356   0.354   0.358   0.361   0.356   0.347   0.355   0.374   0.371   0.367   0.359   0.353   0.354   0.358   0.360   0.350   0.351   0.357   0.353   0.343   0.350   0.335   0.321   0.326   0.333   0.336   0.352   0.357   0.358   0.365   0.368   0.360   0.357   0.337   0.340   0.342   0.360   0.357   0.361   0.358   0.367   0.372   0.364   0.356   0.347   0.361   0.352   0.359   0.354   0.345   0.348   0.351   0.355   0.345   0.352   0.359   0.367   0.363   0.367   0.362   0.362   0.363   0.352   0.365   0.365   0.358   0.363   0.364   0.352   0.364   0.355   0.352   0.356   0.348   0.349   0.348   0.335   0.330   0.341   0.341   0.357   0.358   0.352   0.352   0.338   0.328   0.325   0.342   0.343   0.337   0.346   0.344   0.355   0.339   0.343   0.351   0.346   0.340   0.342   0.336   0.343   0.346   0.345   0.346   0.349   0.353   0.350   0.353   0.340   0.337   0.344   0.357   0.360   0.365   0.356   0.363   0.377   0.369   0.357   0.350   0.362   0.364   0.370   0.366   0.354   0.364   0.359   0.349   0.354   0.352   0.353   0.350   0.368   0.381   0.373   0.369   0.368   0.364   0.358   0.350   0.335   0.348   0.340   0.346   0.341   0.349   0.356   0.366   0.359   0.367   0.364   0.364   0.356   0.353   0.362   0.366   0.356   0.354   0.355   0.343   0.358   0.349   0.353   0.351   0.350   0.352   0.345   0.336   0.353   0.359   0.365   0.359   0.351   0.365   0.372
    56.80    0.346   0.345   0.351   0.343   0.369   0.371   0.360   0.358   0.348   0.353   0.357   0.339   0.336   0.352   0.359   0.375   0.371   0.349   0.350   0.344   0.367   0.350   0.348   0.344   0.361   0.369   0.371   0.355   0.351   0.349   0.364   0.351   0.358   0.352   0.356   0.353   0.346   0.347   0.348   0.334   0.323   0.334   0.333   0.341   0.360   0.356   0.355   0.358   0.356   0.350   0.357   0.350   0.347   0.340   0.351   0.356   0.354   0.366   0.361   0.365   0.368   0.353   0.345   0.352   0.355   0.348   0.348   0.342   0.341   0.344   0.356   0.353   0.360   0.360   0.370   0.362   0.364   0.367   0.366   0.360   0.357   0.359   0.359   0.361   0.368   0.367   0.356   0.362   0.357   0.354   0.363   0.351   0.344   0.362   0.351   0.343   0.332   0.343   0.351   0.349   0.353   0.347   0.343   0.338   0.332   0.347   0.358   0.354   0.347   0.331   0.341   0.344   0.334   0.342   0.352   0.342   0.344   0.343   0.342   0.349   0.349   0.348   0.348   0.356   0.351   0.337   0.347   0.344   0.353   0.345   0.354   0.367   0.362   0.377   0.367   0.359   0.367   0.358   0.361   0.363   0.360   0.360   0.358   0.359   0.353   0.352   0.358   0.346   0.350   0.342   0.363   0.376   0.374   0.360   0.368   0.360   0.363   0.353   0.337   0.341   0.343   0.356   0.347   0.348   0.363   0.347   0.355   0.357   0.368   0.357   0.363   0.353   0.353   0.344   0.351   0.361   0.346   0.352   0.351   0.348   0.351   0.343   0.355   0.341   0.327   0.336   0.351   0.360   0.356   0.357   0.353   0.363   0.366
    47.50    0.357   0.362   0.352   0.354   0.360   0.362   0.349   0.357   0.366   0.354   0.352   0.342   0.343   0.349   0.355   0.365   0.359   0.351   0.348   0.349   0.353   0.355   0.365   0.353   0.361   0.363   0.356   0.346   0.356   0.347   0.349   0.352   0.352   0.340   0.356   0.345   0.337   0.336   0.355   0.350   0.339   0.332   0.345   0.346   0.356   0.359   0.345   0.345   0.365   0.359   0.344   0.342   0.352   0.354   0.355   0.364   0.360   0.360   0.366   0.372   0.368   0.355   0.345   0.337   0.348   0.352   0.349   0.358   0.341   0.350   0.348   0.358   0.352   0.360   0.363   0.359   0.368   0.373   0.366   0.361   0.367   0.354   0.355   0.365   0.364   0.362   0.355   0.362   0.356   0.350   0.348   0.347   0.351   0.350   0.350   0.347   0.346   0.347   0.347   0.342   0.356   0.340   0.349   0.342   0.338   0.334   0.339   0.347   0.354   0.349   0.344   0.342   0.332   0.333   0.342   0.345   0.336   0.345   0.357   0.363   0.358   0.368   0.364   0.357   0.351   0.344   0.340   0.341   0.345   0.345   0.360   0.368   0.360   0.363   0.370   0.364   0.370   0.381   0.369   0.359   0.358   0.367   0.380   0.380   0.364   0.361   0.346   0.354   0.356   0.351   0.360   0.374   0.367   0.364   0.351   0.367   0.356   0.356   0.340   0.341   0.341   0.355   0.358   0.361   0.354   0.339   0.346   0.347   0.349   0.350   0.362   0.345   0.343   0.338   0.352   0.356   0.350   0.348   0.345   0.334   0.348   0.343   0.347   0.341   0.346   0.348   0.360   0.358   0.365   0.366   0.357   0.371   0.363
    38.20    0.372   0.364   0.363   0.349   0.343   0.355   0.358   0.360   0.374   0.364   0.355   0.344   0.335   0.350   0.362   0.361   0.355   0.343   0.342   0.343   0.356   0.375   0.367   0.348   0.361   0.356   0.348   0.349   0.355   0.347   0.343   0.364   0.352   0.352   0.348   0.346   0.342   0.339   0.351   0.360   0.349   0.331   0.335   0.338   0.348   0.348   0.335   0.350   0.352   0.360   0.363   0.359   0.354   0.359   0.354   0.362   0.347   0.347   0.365   0.364   0.355   0.352   0.338   0.348   0.342   0.350   0.357   0.359   0.347   0.347   0.351   0.356   0.366   0.360   0.376   0.361   0.357   0.357   0.364   0.367   0.358   0.352   0.349   0.364   0.365   0.359   0.354   0.371   0.357   0.350   0.345   0.335   0.339   0.339   0.338   0.338   0.346   0.351   0.354   0.348   0.336   0.346   0.356   0.342   0.345   0.354   0.354   0.351   0.351   0.352   0.349   0.345   0.335   0.342   0.350   0.352   0.347   0.353   0.356   0.362   0.346   0.356   0.362   0.348   0.340   0.341   0.335   0.352   0.344   0.364   0.357   0.360   0.371   0.370   0.373   0.370   0.375   0.374   0.370   0.357   0.364   0.371   0.382   0.373   0.364   0.361   0.350   0.352   0.362   0.360   0.364   0.364   0.368   0.354   0.349   0.360   0.357   0.373   0.341   0.341   0.348   0.349   0.355   0.364   0.356   0.354   0.363   0.361   0.366   0.354   0.361   0.355   0.358   0.349   0.341   0.360   0.357   0.344   0.344   0.342   0.348   0.359   0.357   0.345   0.334   0.349   0.356   0.361   0.380   0.355   0.364   0.356   0.353
    28.90    0.378   0.375   0.363   0.366   0.351   0.355   0.357   0.350   0.370   0.369   0.360   0.358   0.345   0.345   0.362   0.357   0.352   0.353   0.339   0.348   0.357   0.367   0.361   0.352   0.356   0.353   0.351   0.356   0.363   0.348   0.345   0.362   0.352   0.363   0.361   0.344   0.346   0.350   0.355   0.352   0.355   0.343   0.335   0.341   0.348   0.347   0.339   0.342   0.348   0.362   0.370   0.372   0.372   0.360   0.348   0.353   0.342   0.348   0.353   0.352   0.353   0.348   0.335   0.346   0.341   0.343   0.350   0.354   0.350   0.357   0.362   0.371   0.356   0.364   0.365   0.366   0.357   0.356   0.350   0.345   0.356   0.355   0.353   0.362   0.352   0.357   0.368   0.371   0.356   0.344   0.340   0.342   0.345   0.340   0.331   0.342   0.350   0.350   0.354   0.351   0.334   0.341   0.347   0.336   0.341   0.359   0.350   0.347   0.343   0.348   0.351   0.352   0.350   0.350   0.357   0.356   0.357   0.345   0.343   0.350   0.337   0.355   0.360   0.353   0.344   0.347   0.342   0.349   0.354   0.361   0.367   0.364   0.368   0.361   0.366   0.370   0.366   0.370   0.363   0.358   0.365   0.367   0.379   0.368   0.365   0.377   0.357   0.361   0.355   0.353   0.353   0.355   0.361   0.368   0.347   0.349   0.367   0.363   0.342   0.351   0.346   0.366   0.361   0.381   0.364   0.355   0.360   0.363   0.366   0.364   0.358   0.363   0.353   0.351   0.338   0.354   0.349   0.353   0.352   0.351   0.340   0.358   0.351   0.353   0.346   0.351   0.358   0.366   0.371   0.361   0.363   0.364   0.362
    19.60    0.365   0.371   0.371   0.364   0.363   0.358   0.360   0.361   0.363   0.376   0.362   0.359   0.350   0.343   0.346   0.347   0.363   0.353   0.361   0.355   0.362   0.357   0.361   0.358   0.365   0.361   0.355   0.350   0.355   0.357   0.349   0.361   0.360   0.352   0.350   0.345   0.337   0.349   0.346   0.341   0.345   0.355   0.357   0.361   0.357   0.354   0.345   0.343   0.362   0.374   0.369   0.367   0.372   0.363   0.356   0.346   0.346   0.358   0.356   0.339   0.339   0.339   0.343   0.329   0.350   0.350   0.346   0.350   0.365   0.368   0.360   0.349   0.347   0.365   0.366   0.368   0.362   0.352   0.341   0.349   0.351   0.340   0.359   0.346   0.360   0.360   0.369   0.366   0.359   0.350   0.345   0.341   0.342   0.341   0.346   0.344   0.352   0.344   0.354   0.339   0.348   0.350   0.350   0.356   0.359   0.362   0.358   0.369   0.356   0.358   0.354   0.355   0.359   0.361   0.363   0.349   0.347   0.339   0.336   0.346   0.349   0.344   0.349   0.345   0.351   0.356   0.346   0.344   0.345   0.360   0.374   0.376   0.372   0.370   0.368   0.370   0.373   0.370   0.386   0.370   0.368   0.368   0.358   0.361   0.372   0.381   0.363   0.354   0.351   0.361   0.364   0.365   0.350   0.365   0.361   0.362   0.364   0.363   0.361   0.357   0.354   0.361   0.365   0.385   0.383   0.377   0.373   0.355   0.348   0.355   0.359   0.355   0.361   0.351   0.337   0.352   0.355   0.355   0.356   0.338   0.342   0.346   0.352   0.353   0.358   0.367   0.365   0.361   0.354   0.360   0.366   0.365   0.357
    10.30    0.361   0.368   0.366   0.364   0.364   0.363   0.350   0.360   0.367   0.373   0.362   0.352   0.354   0.358   0.360   0.354   0.358   0.362   0.363   0.369   0.363   0.370   0.370   0.355   0.356   0.369   0.356   0.353   0.352   0.342   0.362   0.364   0.373   0.369   0.358   0.359   0.350   0.361   0.352   0.351   0.353   0.356   0.357   0.357   0.364   0.367   0.364   0.357   0.364   0.369   0.354   0.366   0.358   0.358   0.363   0.362   0.354   0.360   0.358   0.357   0.344   0.336   0.334   0.342   0.345   0.350   0.350   0.349   0.354   0.366   0.358   0.361   0.360   0.374   0.375   0.362   0.356   0.352   0.341   0.348   0.354   0.344   0.345   0.336   0.357   0.363   0.365   0.369   0.368   0.351   0.345   0.344   0.343   0.345   0.343   0.344   0.356   0.342   0.350   0.357   0.344   0.354   0.355   0.357   0.360   0.350   0.355   0.373   0.367   0.368   0.358   0.354   0.353   0.344   0.361   0.356   0.337   0.331   0.336   0.345   0.352   0.347   0.343   0.341   0.348   0.327   0.342   0.351   0.363   0.370   0.374   0.381   0.370   0.375   0.384   0.378   0.371   0.371   0.374   0.377   0.361   0.355   0.370   0.374   0.367   0.368   0.371   0.361   0.351   0.357   0.370   0.362   0.357   0.360   0.362   0.352   0.370   0.373   0.361   0.368   0.363   0.354   0.364   0.376   0.372   0.364   0.361   0.349   0.345   0.352   0.352   0.352   0.348   0.353   0.355   0.349   0.360   0.350   0.341   0.337   0.356   0.358   0.357   0.353   0.370   0.360   0.355   0.359   0.355   0.361   0.370   0.364   0.363
     1.00    0.356   0.354   0.369   0.366   0.368   0.356   0.347   0.352   0.357   0.354   0.362   0.356   0.353   0.360   0.362   0.356   0.359   0.358   0.366   0.361   0.361   0.364   0.363   0.360   0.360   0.356   0.351   0.350   0.354   0.346   0.340   0.357   0.358   0.368   0.357   0.351   0.343   0.360   0.360   0.350   0.357   0.351   0.358   0.359   0.359   0.358   0.360   0.363   0.360   0.359   0.362   0.351   0.352   0.352   0.350   0.350   0.350   0.350   0.370   0.365   0.354   0.336   0.340   0.348   0.360   0.350   0.354   0.354   0.355   0.361   0.362   0.359   0.368   0.369   0.373   0.362   0.356   0.354   0.355   0.359   0.353   0.358   0.339   0.333   0.352   0.356   0.361   0.367   0.360   0.342   0.346   0.357   0.338   0.341   0.354   0.345   0.358   0.342   0.341   0.348   0.347   0.353   0.361   0.361   0.349   0.360   0.364   0.366   0.356   0.347   0.343   0.346   0.358   0.342   0.343   0.347   0.348   0.347   0.335   0.343   0.350   0.355   0.349   0.355   0.351   0.340   0.333   0.329   0.349   0.361   0.360   0.367   0.352   0.364   0.370   0.363   0.363   0.371   0.361   0.360   0.364   0.359   0.372   0.378   0.354   0.363   0.367   0.358   0.361   0.367   0.372   0.366   0.356   0.366   0.356   0.367   0.357   0.373   0.372   0.366   0.355   0.363   0.375   0.367   0.361   0.362   0.346   0.339   0.348   0.359   0.346   0.349   0.358   0.352   0.359   0.348   0.350   0.351   0.355   0.354   0.343   0.343   0.357   0.363   0.361   0.351   0.345   0.355   0.359   0.361   0.372   0.365   0.365

   Mean standard deviation across all grid points:
      u component:    0.712 m/s
      v component:    0.572 m/s
      w component:    0.353 m/s


U-component (X) statistics from the interpolated hub point:

   Mean =   9.7063 m/s
   TI   =   7.8207 %


Processing complete.  2.11443E+05 CPU seconds used.
