
This summary file was generated by TurbSim (from OpenFAST-v3.5.3) on 20-Apr-2025 at 03:51:08.


Runtime Options:

1341164796  Random seed #1
    RANLUX  Type of random number generator
         F  Output binary HH turbulence parameters?
         F  Output formatted turbulence parameters?
         F  Output AeroDyn HH files?
         T  Output AeroDyn FF files?
         F  Output BLADED FF files?
         F  Output tower data?
         F  Output HAWC FF files?
         F  Output formatted FF files?
         T  Output coherent turbulence time step file?
 0 -  NONE  IEC turbulence models scaled to exact specified standard deviation


Turbine/Model Specifications:

        37  Vertical grid-point matrix dimension
        35  Horizontal grid-point matrix dimension
     0.250  Time step [seconds]
   900.000  Analysis time [seconds]
   900.000  Usable output time [seconds]
    89.350  Hub height [m]
   167.400  Grid height [m]
   158.100  Grid width [m]
     0.000  Vertical flow angle [degrees]
     0.000  Horizontal flow angle [degrees]


Meteorological Boundary Conditions:

    TIMESR  User-input time series spectral model
       N/A  IEC standard
       N/A  IEC turbulence characteristic
       N/A  IEC turbulence type
       N/A  IEC Extreme Turbulence Model (ETM) "c" parameter [m/s]
       PL   Wind profile type
    90.000  Reference height [m]
    10.000  Reference wind speed [m/s]
       N/A  Jet height [m]
     0.120  Power law exponent
     0.030  Surface roughness length [m]


Non-IEC Meteorological Boundary Conditions:

    45.000  Site latitude [degrees]
     0.050  Gradient Richardson number
     0.480  Friction or shear velocity [m/s]
       N/A  Mixing layer depth [m]
       N/A  Mean hub u'w' Reynolds stress
       N/A  Mean hub u'v' Reynolds stress
       N/A  Mean hub v'w' Reynolds stress


Spatial Coherence Models:

       IEC  u-component coherence model
       IEC  v-component coherence model
       IEC  w-component coherence model
(   12.000, 0.353E-03)  u-component coherence parameters
(   12.000, 0.353E-03)  v-component coherence parameters
(   12.000, 0.353E-03)  w-component coherence parameters
       N/A  Coherence exponent


Coherent Turbulence Scaling Parameters:

.\EventData
            Name of the path containing the coherent turbulence data files
       les  Type of coherent turbulence data files
     0.500  Disturbance scale (ratio of wave height to rotor diameter)
     0.500  Fractional location of tower centerline from right
     1.000  Fractional location of hub height from the bottom of the dataset
    30.000  Minimum start time for coherent structures [seconds]


Profiles from User-Defined Time-Series Input:

  Height   Wind Speed   Horizontal Angle   Vertical Angle
   (m)        (m/s)          (deg)              (deg)    
  ------   ----------   ----------------   --------------
   94.00      10.00          -0.63                0.00


You have requested that the following file(s) be generated:

   /kfs3/scratch/agupta/Projects/RL_Incubator/FinalRuns_Veer/Seed4/./FFSim_Seed4/Cond00_v10.0_PL0.12_TI5.0/Case0_wdirp00/Seed_8/TurbSim/HighT2.bts (AeroDyn/TurbSim full-field wind file)


Turbulence Simulation Scaling Parameter Summary:

   Turbulence model used                            =  User-input time series
   Gradient Richardson number                       =    0.050
   Monin-Obukhov (M-O) z/L parameter                =    0.067
   Monin-Obukhov (M-O) length scale                 = 1340.250 m
   Mean wind speed at hub height                    =    9.991 m/s

   Wind profile type                                =  Power law
   Power law exponent                               =    0.120
   Mean shear across rotor disk                     =    0.019 (m/s)/m
   Assumed rotor diameter                           =  158.100 m
   Surface roughness length                         =    0.030 m

   Nyquist frequency of turbulent wind field        =    2.000 Hz

   Number of time steps in the FFT                  =     3600
   Number of time steps output                      =     3600
   Number of points simulated                       =     1296


Mean Flow Angles:

   Vertical   =   0.0 degrees
   Horizontal =   0.0 degrees

Mean Wind Speed Profile:

   Height    Wind Speed   Horizontal Angle  Vertical Angle  U-comp (X)   V-comp (Y)   W-comp (Z)
     (m)        (m/s)         (degrees)       (degrees)       (m/s)        (m/s)        (m/s)   
   ------    ----------   ----------------  --------------  ----------   ----------   ----------
    168.4       10.78            0.00            0.00         10.78         0.00         0.00
    163.7       10.74            0.00            0.00         10.74         0.00         0.00
    159.1       10.71            0.00            0.00         10.71         0.00         0.00
    154.4       10.67            0.00            0.00         10.67         0.00         0.00
    149.8       10.63            0.00            0.00         10.63         0.00         0.00
    145.1       10.59            0.00            0.00         10.59         0.00         0.00
    140.5       10.55            0.00            0.00         10.55         0.00         0.00
    135.8       10.51            0.00            0.00         10.51         0.00         0.00
    131.2       10.46            0.00            0.00         10.46         0.00         0.00
    126.5       10.42            0.00            0.00         10.42         0.00         0.00
    121.9       10.37            0.00            0.00         10.37         0.00         0.00
    117.2       10.32            0.00            0.00         10.32         0.00         0.00
    112.6       10.27            0.00            0.00         10.27         0.00         0.00
    107.9       10.22            0.00            0.00         10.22         0.00         0.00
    103.3       10.17            0.00            0.00         10.17         0.00         0.00
     98.6       10.11            0.00            0.00         10.11         0.00         0.00
     94.0       10.05            0.00            0.00         10.05         0.00         0.00
     89.3        9.99            0.00            0.00          9.99         0.00         0.00
     84.7        9.93            0.00            0.00          9.93         0.00         0.00
     80.0        9.86            0.00            0.00          9.86         0.00         0.00
     75.4        9.79            0.00            0.00          9.79         0.00         0.00
     70.7        9.72            0.00            0.00          9.72         0.00         0.00
     66.1        9.64            0.00            0.00          9.64         0.00         0.00
     61.4        9.55            0.00            0.00          9.55         0.00         0.00
     56.8        9.46            0.00            0.00          9.46         0.00         0.00
     52.1        9.37            0.00            0.00          9.37         0.00         0.00
     47.5        9.26            0.00            0.00          9.26         0.00         0.00
     42.8        9.15            0.00            0.00          9.15         0.00         0.00
     38.2        9.02            0.00            0.00          9.02         0.00         0.00
     33.5        8.88            0.00            0.00          8.88         0.00         0.00
     28.9        8.73            0.00            0.00          8.73         0.00         0.00
     24.2        8.54            0.00            0.00          8.54         0.00         0.00
     19.6        8.33            0.00            0.00          8.33         0.00         0.00
     14.9        8.06            0.00            0.00          8.06         0.00         0.00
     10.3        7.71            0.00            0.00          7.71         0.00         0.00
      5.6        7.17            0.00            0.00          7.17         0.00         0.00
      1.0        5.83            0.00            0.00          5.83         0.00         0.00


Harvested Random Seeds after Generation of the Random Numbers:

     65026800 K 1
            0 K 2


Hub-Height Simulated Turbulence Statistical Summary:

   Type of Wind        Min (m/s)   Mean (m/s)    Max (m/s)  Sigma (m/s)       TI (%)
   ----------------    ---------   ----------    ---------  -----------       ------
   Longitudinal (u)         8.63         9.99        11.48        0.449        4.493
   Lateral (v)             -1.31        -0.00         1.15        0.404        4.042
   Vertical (w)            -0.96        -0.00         0.78        0.254        2.546
   U component              8.63         9.99        11.48        0.449        4.493
   V component             -1.31        -0.00         1.15        0.404        4.042
   W component             -0.96        -0.00         0.78        0.254        2.546
   Horizontal (U&V)         8.64        10.00        11.48        0.449        4.486
   Total                    8.65        10.00        11.50        0.448        4.483

                       Min Reynolds     Mean Reynolds    Max Reynolds    Correlation
   Product             Stress (m/s)^2   Stress (m/s)^2   Stress (m/s)^2  Coefficient
   ----------------    --------------   --------------   --------------  -----------
   u'w'                     -0.634            -0.003             1.070        -0.022
   u'v'                     -0.923            -0.012             1.185        -0.065
   v'w'                     -0.673            -0.005             0.551        -0.045


   Friction Velocity (Ustar)  =      0.050 m/s
   Maximum Instantaneous TKE  =      1.360 (m/s)^2
   Maximum Instantaneous CTKE =      0.655 (m/s)^2


Grid Point Variance Summary:

   Y-coord  -79.05  -74.40  -69.75  -65.10  -60.45  -55.80  -51.15  -46.50  -41.85  -37.20  -32.55  -27.90  -23.25  -18.60  -13.95   -9.30   -4.65    0.00    4.65    9.30   13.95   18.60   23.25   27.90   32.55   37.20   41.85   46.50   51.15   55.80   60.45   65.10   69.75   74.40   79.05

   Height   Standard deviation at grid points for the u component:
   168.40    0.463   0.455   0.463   0.410   0.405   0.407   0.418   0.415   0.417   0.384   0.389   0.405   0.393   0.390   0.401   0.399   0.426   0.436   0.432   0.419   0.398   0.426   0.431   0.420   0.407   0.412   0.424   0.387   0.387   0.416   0.403   0.445   0.426   0.445   0.422
   163.75    0.453   0.450   0.441   0.422   0.436   0.423   0.418   0.419   0.415   0.389   0.387   0.386   0.370   0.371   0.391   0.403   0.394   0.414   0.428   0.422   0.427   0.456   0.458   0.422   0.404   0.420   0.420   0.387   0.396   0.392   0.432   0.439   0.470   0.480   0.464
   159.10    0.445   0.443   0.435   0.417   0.459   0.447   0.450   0.425   0.420   0.393   0.399   0.410   0.379   0.386   0.409   0.412   0.431   0.394   0.432   0.425   0.427   0.428   0.448   0.413   0.398   0.403   0.385   0.411   0.393   0.385   0.424   0.439   0.443   0.444   0.479
   154.45    0.465   0.433   0.435   0.433   0.454   0.458   0.430   0.431   0.402   0.405   0.399   0.409   0.413   0.404   0.416   0.433   0.430   0.403   0.442   0.442   0.438   0.434   0.432   0.447   0.404   0.408   0.438   0.445   0.436   0.407   0.430   0.439   0.439   0.424   0.453
   149.80    0.434   0.426   0.443   0.441   0.441   0.455   0.433   0.416   0.401   0.410   0.402   0.380   0.395   0.423   0.418   0.408   0.416   0.436   0.438   0.455   0.420   0.429   0.450   0.451   0.421   0.429   0.448   0.443   0.412   0.404   0.430   0.438   0.448   0.441   0.459
   145.15    0.438   0.446   0.450   0.442   0.438   0.438   0.434   0.404   0.402   0.399   0.405   0.375   0.367   0.391   0.413   0.413   0.399   0.413   0.438   0.424   0.420   0.418   0.440   0.455   0.439   0.450   0.482   0.442   0.467   0.429   0.446   0.449   0.472   0.461   0.490
   140.50    0.438   0.435   0.465   0.424   0.428   0.423   0.418   0.424   0.403   0.401   0.419   0.402   0.364   0.399   0.391   0.384   0.396   0.398   0.415   0.419   0.425   0.437   0.438   0.466   0.466   0.465   0.454   0.485   0.447   0.457   0.463   0.469   0.464   0.487   0.473
   135.85    0.457   0.455   0.460   0.453   0.452   0.446   0.425   0.418   0.436   0.401   0.407   0.393   0.387   0.394   0.376   0.367   0.387   0.388   0.395   0.395   0.410   0.439   0.463   0.481   0.456   0.451   0.443   0.466   0.463   0.460   0.419   0.468   0.480   0.482   0.485
   131.20    0.417   0.439   0.461   0.471   0.434   0.435   0.437   0.451   0.446   0.436   0.407   0.410   0.397   0.403   0.390   0.361   0.345   0.361   0.374   0.393   0.420   0.450   0.454   0.463   0.441   0.456   0.442   0.463   0.451   0.455   0.439   0.461   0.481   0.476   0.477
   126.55    0.420   0.422   0.466   0.463   0.457   0.426   0.428   0.436   0.434   0.418   0.417   0.408   0.407   0.410   0.385   0.361   0.356   0.343   0.374   0.421   0.436   0.438   0.439   0.441   0.461   0.462   0.460   0.453   0.451   0.454   0.466   0.450   0.457   0.474   0.484
   121.90    0.419   0.437   0.455   0.448   0.462   0.463   0.427   0.440   0.422   0.414   0.402   0.416   0.412   0.396   0.393   0.365   0.358   0.369   0.386   0.428   0.433   0.430   0.449   0.468   0.453   0.486   0.494   0.479   0.475   0.489   0.469   0.452   0.467   0.478   0.475
   117.25    0.419   0.421   0.444   0.449   0.437   0.430   0.446   0.449   0.452   0.455   0.464   0.433   0.421   0.418   0.415   0.421   0.381   0.361   0.394   0.434   0.433   0.436   0.436   0.457   0.475   0.490   0.507   0.501   0.490   0.497   0.484   0.480   0.460   0.466   0.495
   112.60    0.404   0.406   0.423   0.447   0.449   0.454   0.431   0.463   0.476   0.472   0.455   0.438   0.420   0.442   0.447   0.437   0.404   0.394   0.401   0.427   0.430   0.439   0.452   0.473   0.495   0.487   0.522   0.510   0.502   0.484   0.492   0.493   0.469   0.491   0.519
   107.95    0.424   0.413   0.420   0.417   0.433   0.461   0.448   0.469   0.469   0.482   0.476   0.439   0.460   0.443   0.439   0.416   0.396   0.411   0.429   0.432   0.435   0.440   0.470   0.500   0.507   0.518   0.508   0.496   0.502   0.480   0.467   0.462   0.468   0.501   0.514
   103.30    0.420   0.418   0.416   0.426   0.420   0.440   0.442   0.475   0.497   0.477   0.478   0.455   0.451   0.467   0.441   0.431   0.418   0.446   0.428   0.426   0.413   0.438   0.455   0.496   0.524   0.498   0.512   0.495   0.481   0.471   0.451   0.469   0.470   0.479   0.482
    98.65    0.449   0.440   0.444   0.431   0.455   0.442   0.476   0.487   0.496   0.481   0.462   0.454   0.450   0.449   0.431   0.435   0.429   0.438   0.434   0.450   0.437   0.448   0.493   0.490   0.516   0.526   0.523   0.512   0.495   0.468   0.501   0.468   0.446   0.434   0.470
    94.00    0.432   0.437   0.452   0.439   0.456   0.465   0.463   0.505   0.491   0.491   0.466   0.453   0.439   0.434   0.456   0.439   0.439   0.452   0.450   0.434   0.462   0.467   0.464   0.472   0.488   0.515   0.543   0.517   0.486   0.485   0.485   0.503   0.478   0.473   0.483
    89.35    0.439   0.443   0.444   0.419   0.434   0.468   0.504   0.499   0.478   0.502   0.488   0.450   0.429   0.418   0.449   0.462   0.447   0.449   0.482   0.468   0.464   0.486   0.472   0.472   0.469   0.497   0.537   0.528   0.515   0.488   0.474   0.497   0.494   0.468   0.502
    84.70    0.445   0.458   0.462   0.450   0.434   0.444   0.501   0.502   0.466   0.495   0.482   0.449   0.454   0.435   0.456   0.467   0.466   0.462   0.484   0.502   0.485   0.488   0.472   0.464   0.439   0.477   0.496   0.514   0.510   0.490   0.477   0.504   0.488   0.490   0.467
    80.05    0.428   0.479   0.470   0.466   0.436   0.479   0.487   0.507   0.494   0.504   0.501   0.521   0.473   0.432   0.437   0.452   0.465   0.477   0.471   0.493   0.481   0.466   0.479   0.472   0.468   0.466   0.504   0.523   0.513   0.505   0.497   0.475   0.479   0.486   0.502
    75.40    0.458   0.478   0.475   0.451   0.438   0.456   0.467   0.462   0.487   0.502   0.501   0.498   0.463   0.463   0.472   0.468   0.469   0.490   0.481   0.496   0.478   0.449   0.454   0.483   0.454   0.461   0.478   0.478   0.497   0.489   0.492   0.484   0.499   0.508   0.513
    70.75    0.444   0.468   0.495   0.480   0.439   0.443   0.463   0.437   0.467   0.463   0.452   0.478   0.455   0.502   0.490   0.468   0.488   0.495   0.475   0.487   0.453   0.474   0.439   0.458   0.454   0.458   0.486   0.489   0.489   0.486   0.499   0.486   0.502   0.494   0.509
    66.10    0.450   0.457   0.490   0.459   0.448   0.450   0.441   0.433   0.440   0.459   0.444   0.471   0.487   0.474   0.490   0.496   0.489   0.482   0.490   0.493   0.477   0.465   0.471   0.457   0.451   0.467   0.469   0.465   0.468   0.498   0.500   0.473   0.469   0.484   0.469
    61.45    0.486   0.490   0.502   0.489   0.461   0.443   0.432   0.438   0.440   0.479   0.469   0.464   0.496   0.497   0.510   0.502   0.496   0.499   0.486   0.473   0.454   0.454   0.460   0.473   0.444   0.474   0.462   0.479   0.468   0.485   0.468   0.482   0.482   0.486   0.475
    56.80    0.513   0.495   0.479   0.496   0.464   0.438   0.463   0.438   0.480   0.460   0.476   0.474   0.477   0.517   0.518   0.522   0.516   0.500   0.495   0.486   0.456   0.448   0.476   0.452   0.444   0.481   0.472   0.478   0.483   0.483   0.466   0.457   0.470   0.462   0.450
    52.15    0.485   0.479   0.506   0.466   0.456   0.457   0.470   0.463   0.470   0.482   0.477   0.468   0.474   0.502   0.542   0.538   0.560   0.540   0.496   0.504   0.482   0.475   0.480   0.452   0.454   0.489   0.475   0.469   0.474   0.458   0.475   0.459   0.470   0.475   0.435
    47.50    0.472   0.473   0.487   0.457   0.470   0.496   0.477   0.471   0.468   0.455   0.448   0.485   0.483   0.522   0.528   0.545   0.550   0.541   0.522   0.522   0.503   0.492   0.492   0.481   0.466   0.481   0.479   0.454   0.470   0.475   0.443   0.462   0.473   0.452   0.447
    42.85    0.494   0.489   0.484   0.476   0.483   0.491   0.493   0.478   0.480   0.458   0.462   0.455   0.475   0.520   0.520   0.536   0.532   0.512   0.535   0.547   0.505   0.489   0.499   0.496   0.498   0.468   0.469   0.457   0.471   0.450   0.429   0.451   0.487   0.462   0.445
    38.20    0.509   0.521   0.468   0.464   0.486   0.464   0.477   0.481   0.478   0.461   0.467   0.486   0.483   0.475   0.528   0.558   0.539   0.539   0.577   0.575   0.536   0.522   0.490   0.487   0.476   0.469   0.448   0.437   0.446   0.447   0.438   0.449   0.449   0.447   0.462
    33.55    0.510   0.535   0.477   0.454   0.467   0.466   0.471   0.479   0.488   0.489   0.475   0.486   0.501   0.516   0.540   0.547   0.548   0.558   0.560   0.571   0.567   0.550   0.509   0.522   0.489   0.457   0.460   0.419   0.436   0.442   0.474   0.472   0.449   0.476   0.467
    28.90    0.511   0.514   0.470   0.479   0.475   0.473   0.497   0.475   0.477   0.503   0.489   0.510   0.499   0.525   0.521   0.545   0.541   0.577   0.560   0.531   0.510   0.533   0.502   0.509   0.479   0.474   0.467   0.442   0.446   0.444   0.465   0.491   0.502   0.472   0.498
    24.25    0.540   0.531   0.495   0.512   0.512   0.510   0.466   0.470   0.458   0.474   0.481   0.522   0.512   0.528   0.560   0.532   0.545   0.573   0.567   0.524   0.522   0.533   0.515   0.488   0.478   0.476   0.481   0.469   0.454   0.464   0.484   0.479   0.478   0.489   0.493
    19.60    0.548   0.534   0.505   0.504   0.535   0.506   0.485   0.467   0.466   0.473   0.472   0.485   0.527   0.531   0.559   0.548   0.536   0.544   0.545   0.527   0.511   0.504   0.504   0.506   0.510   0.490   0.466   0.463   0.458   0.468   0.490   0.485   0.493   0.501   0.493
    14.95    0.511   0.488   0.505   0.503   0.489   0.514   0.508   0.488   0.472   0.483   0.490   0.483   0.523   0.521   0.523   0.527   0.517   0.530   0.512   0.512   0.492   0.487   0.484   0.503   0.495   0.486   0.467   0.480   0.473   0.470   0.485   0.480   0.491   0.503   0.470
    10.30    0.499   0.500   0.518   0.534   0.514   0.508   0.504   0.476   0.501   0.479   0.494   0.506   0.514   0.502   0.500   0.518   0.494   0.509   0.497   0.495   0.516   0.498   0.472   0.491   0.504   0.523   0.504   0.505   0.483   0.491   0.496   0.459   0.481   0.460   0.468
     5.65    0.497   0.499   0.512   0.506   0.505   0.491   0.527   0.507   0.495   0.509   0.497   0.511   0.483   0.490   0.487   0.480   0.496   0.487   0.518   0.499   0.504   0.503   0.482   0.486   0.492   0.520   0.514   0.516   0.501   0.460   0.490   0.474   0.444   0.441   0.444
     1.00    0.480   0.488   0.508   0.507   0.504   0.510   0.504   0.518   0.510   0.524   0.527   0.520   0.494   0.489   0.498   0.481   0.495   0.509   0.503   0.499   0.521   0.522   0.482   0.475   0.486   0.502   0.483   0.498   0.503   0.481   0.475   0.474   0.456   0.426   0.415

   Height   Standard deviation at grid points for the v component:
   168.40    0.432   0.466   0.454   0.459   0.441   0.441   0.443   0.431   0.423   0.427   0.435   0.473   0.489   0.466   0.440   0.432   0.437   0.431   0.412   0.402   0.429   0.413   0.396   0.395   0.395   0.397   0.390   0.405   0.403   0.413   0.368   0.354   0.379   0.380   0.390
   163.75    0.444   0.452   0.460   0.469   0.469   0.451   0.445   0.447   0.457   0.442   0.442   0.445   0.457   0.482   0.459   0.440   0.443   0.426   0.441   0.425   0.431   0.423   0.409   0.401   0.407   0.415   0.405   0.407   0.435   0.417   0.379   0.377   0.370   0.373   0.387
   159.10    0.457   0.443   0.424   0.462   0.480   0.491   0.463   0.445   0.459   0.441   0.421   0.430   0.453   0.461   0.449   0.438   0.444   0.454   0.452   0.414   0.438   0.420   0.406   0.410   0.407   0.404   0.408   0.420   0.442   0.430   0.426   0.387   0.385   0.391   0.407
   154.45    0.438   0.449   0.436   0.473   0.492   0.471   0.474   0.490   0.466   0.440   0.420   0.446   0.441   0.423   0.442   0.443   0.435   0.466   0.443   0.437   0.449   0.428   0.394   0.416   0.417   0.420   0.408   0.434   0.439   0.447   0.441   0.410   0.380   0.398   0.395
   149.80    0.445   0.447   0.439   0.492   0.493   0.460   0.456   0.473   0.467   0.457   0.448   0.465   0.426   0.424   0.451   0.446   0.461   0.492   0.474   0.470   0.445   0.409   0.420   0.403   0.411   0.432   0.407   0.434   0.445   0.457   0.413   0.410   0.391   0.423   0.411
   145.15    0.470   0.470   0.484   0.456   0.488   0.473   0.469   0.457   0.433   0.426   0.441   0.441   0.448   0.458   0.444   0.444   0.466   0.486   0.515   0.534   0.479   0.437   0.416   0.423   0.438   0.441   0.404   0.396   0.410   0.417   0.424   0.418   0.437   0.428   0.400
   140.50    0.489   0.453   0.472   0.461   0.442   0.461   0.469   0.440   0.430   0.426   0.423   0.441   0.472   0.477   0.485   0.490   0.503   0.512   0.520   0.514   0.491   0.440   0.420   0.419   0.455   0.452   0.411   0.411   0.412   0.412   0.392   0.419   0.438   0.435   0.419
   135.85    0.460   0.452   0.453   0.461   0.453   0.474   0.452   0.475   0.431   0.442   0.417   0.444   0.453   0.489   0.475   0.507   0.492   0.509   0.521   0.488   0.453   0.436   0.435   0.419   0.445   0.465   0.419   0.421   0.442   0.424   0.429   0.408   0.411   0.442   0.409
   131.20    0.445   0.458   0.462   0.481   0.463   0.436   0.465   0.450   0.447   0.448   0.425   0.426   0.453   0.451   0.492   0.492   0.498   0.505   0.503   0.484   0.476   0.433   0.422   0.427   0.451   0.443   0.425   0.451   0.456   0.428   0.424   0.402   0.395   0.408   0.416
   126.55    0.435   0.438   0.440   0.451   0.425   0.432   0.435   0.437   0.420   0.430   0.418   0.427   0.431   0.450   0.486   0.497   0.510   0.527   0.511   0.452   0.446   0.414   0.428   0.429   0.427   0.431   0.445   0.441   0.445   0.456   0.414   0.412   0.393   0.384   0.399
   121.90    0.456   0.440   0.427   0.420   0.419   0.429   0.447   0.458   0.449   0.440   0.412   0.409   0.455   0.494   0.485   0.469   0.515   0.507   0.493   0.457   0.459   0.432   0.424   0.414   0.422   0.406   0.422   0.433   0.430   0.429   0.413   0.413   0.397   0.397   0.400
   117.25    0.416   0.410   0.405   0.402   0.399   0.386   0.415   0.447   0.433   0.431   0.402   0.442   0.432   0.459   0.474   0.480   0.496   0.467   0.472   0.474   0.461   0.427   0.425   0.402   0.394   0.417   0.421   0.427   0.436   0.450   0.440   0.411   0.380   0.396   0.398
   112.60    0.396   0.412   0.418   0.382   0.364   0.372   0.394   0.429   0.435   0.428   0.408   0.432   0.460   0.442   0.436   0.466   0.461   0.480   0.456   0.455   0.459   0.412   0.399   0.411   0.410   0.411   0.411   0.409   0.429   0.431   0.428   0.418   0.391   0.396   0.404
   107.95    0.409   0.412   0.398   0.390   0.374   0.395   0.401   0.426   0.431   0.423   0.432   0.448   0.458   0.436   0.455   0.450   0.444   0.449   0.419   0.455   0.451   0.426   0.417   0.421   0.400   0.385   0.416   0.412   0.441   0.437   0.452   0.419   0.419   0.423   0.397
   103.30    0.394   0.395   0.384   0.400   0.395   0.408   0.410   0.400   0.407   0.401   0.400   0.415   0.422   0.453   0.428   0.452   0.466   0.436   0.437   0.444   0.457   0.413   0.403   0.418   0.428   0.408   0.404   0.413   0.436   0.436   0.444   0.445   0.449   0.441   0.404
    98.65    0.403   0.403   0.431   0.410   0.408   0.407   0.386   0.396   0.388   0.399   0.415   0.435   0.431   0.440   0.419   0.435   0.438   0.423   0.416   0.428   0.430   0.447   0.430   0.412   0.407   0.404   0.424   0.418   0.421   0.416   0.422   0.451   0.453   0.436   0.412
    94.00    0.420   0.420   0.428   0.411   0.414   0.407   0.400   0.394   0.390   0.398   0.411   0.430   0.422   0.414   0.403   0.397   0.413   0.413   0.411   0.418   0.421   0.435   0.456   0.425   0.431   0.420   0.419   0.413   0.411   0.443   0.431   0.435   0.442   0.423   0.420
    89.35    0.426   0.421   0.388   0.412   0.419   0.379   0.383   0.393   0.394   0.440   0.423   0.447   0.418   0.397   0.386   0.392   0.375   0.404   0.398   0.428   0.431   0.457   0.449   0.436   0.442   0.410   0.406   0.407   0.416   0.425   0.418   0.426   0.447   0.432   0.412
    84.70    0.422   0.413   0.395   0.408   0.374   0.395   0.437   0.408   0.432   0.447   0.439   0.426   0.398   0.382   0.374   0.387   0.392   0.416   0.416   0.435   0.417   0.432   0.426   0.446   0.435   0.422   0.416   0.409   0.429   0.421   0.435   0.447   0.438   0.447   0.432
    80.05    0.402   0.375   0.364   0.381   0.410   0.409   0.435   0.391   0.407   0.413   0.418   0.416   0.412   0.395   0.401   0.400   0.428   0.436   0.463   0.461   0.463   0.472   0.436   0.439   0.420   0.435   0.439   0.421   0.430   0.439   0.430   0.460   0.451   0.458   0.427
    75.40    0.382   0.368   0.384   0.380   0.393   0.417   0.377   0.414   0.405   0.398   0.410   0.384   0.392   0.420   0.405   0.427   0.417   0.424   0.464   0.468   0.462   0.480   0.477   0.434   0.441   0.460   0.447   0.470   0.465   0.479   0.508   0.509   0.491   0.488   0.449
    70.75    0.395   0.410   0.387   0.379   0.390   0.394   0.380   0.398   0.391   0.418   0.410   0.389   0.374   0.396   0.427   0.391   0.397   0.429   0.459   0.472   0.500   0.479   0.472   0.457   0.474   0.486   0.467   0.488   0.470   0.480   0.515   0.498   0.532   0.518   0.468
    66.10    0.405   0.401   0.408   0.413   0.401   0.410   0.403   0.415   0.382   0.392   0.394   0.400   0.365   0.386   0.384   0.407   0.416   0.413   0.450   0.446   0.469   0.445   0.460   0.452   0.488   0.492   0.486   0.479   0.501   0.494   0.492   0.510   0.548   0.477   0.485
    61.45    0.397   0.413   0.377   0.408   0.385   0.400   0.416   0.395   0.390   0.392   0.369   0.389   0.397   0.411   0.384   0.381   0.404   0.447   0.432   0.442   0.452   0.463   0.479   0.475   0.490   0.442   0.466   0.479   0.515   0.523   0.526   0.504   0.510   0.501   0.481
    56.80    0.394   0.408   0.416   0.403   0.382   0.372   0.390   0.390   0.381   0.393   0.407   0.410   0.395   0.423   0.426   0.420   0.417   0.450   0.446   0.475   0.489   0.498   0.508   0.469   0.493   0.471   0.465   0.515   0.493   0.512   0.514   0.522   0.487   0.464   0.443
    52.15    0.420   0.420   0.421   0.400   0.396   0.370   0.377   0.380   0.395   0.378   0.387   0.409   0.415   0.436   0.449   0.461   0.440   0.458   0.464   0.458   0.475   0.487   0.504   0.491   0.501   0.494   0.523   0.523   0.504   0.511   0.498   0.483   0.475   0.477   0.441
    47.50    0.429   0.425   0.405   0.370   0.383   0.386   0.395   0.401   0.405   0.392   0.388   0.393   0.401   0.431   0.445   0.464   0.455   0.450   0.466   0.474   0.504   0.510   0.492   0.491   0.520   0.530   0.537   0.524   0.497   0.482   0.492   0.468   0.450   0.459   0.437
    42.85    0.469   0.423   0.413   0.386   0.369   0.381   0.397   0.395   0.385   0.386   0.404   0.405   0.407   0.406   0.430   0.414   0.452   0.438   0.472   0.489   0.494   0.494   0.513   0.489   0.486   0.515   0.514   0.487   0.499   0.507   0.515   0.499   0.503   0.468   0.458
    38.20    0.443   0.426   0.418   0.398   0.365   0.378   0.397   0.399   0.382   0.400   0.403   0.418   0.406   0.415   0.398   0.421   0.452   0.464   0.469   0.482   0.482   0.488   0.489   0.471   0.451   0.459   0.497   0.510   0.474   0.495   0.468   0.488   0.497   0.500   0.462
    33.55    0.462   0.445   0.407   0.354   0.383   0.385   0.388   0.402   0.389   0.394   0.405   0.423   0.408   0.419   0.385   0.415   0.412   0.453   0.477   0.492   0.478   0.463   0.457   0.474   0.458   0.487   0.513   0.509   0.516   0.477   0.474   0.495   0.493   0.439   0.438
    28.90    0.427   0.418   0.382   0.365   0.378   0.389   0.406   0.417   0.407   0.414   0.446   0.418   0.392   0.401   0.403   0.412   0.440   0.463   0.484   0.460   0.481   0.493   0.475   0.481   0.482   0.507   0.496   0.487   0.487   0.487   0.476   0.446   0.472   0.452   0.459
    24.25    0.404   0.402   0.395   0.380   0.400   0.396   0.411   0.408   0.445   0.460   0.461   0.436   0.399   0.393   0.388   0.445   0.468   0.456   0.476   0.462   0.494   0.439   0.478   0.479   0.502   0.490   0.509   0.506   0.495   0.508   0.469   0.438   0.466   0.500   0.456
    19.60    0.391   0.397   0.392   0.381   0.370   0.379   0.385   0.401   0.430   0.428   0.407   0.448   0.446   0.422   0.410   0.465   0.464   0.472   0.469   0.431   0.460   0.463   0.455   0.477   0.509   0.498   0.508   0.501   0.506   0.510   0.488   0.479   0.451   0.483   0.479
    14.95    0.383   0.375   0.379   0.377   0.351   0.388   0.395   0.413   0.444   0.436   0.439   0.448   0.457   0.430   0.418   0.457   0.462   0.445   0.453   0.429   0.447   0.448   0.471   0.486   0.494   0.492   0.488   0.476   0.497   0.479   0.479   0.509   0.484   0.517   0.510
    10.30    0.360   0.363   0.357   0.366   0.361   0.372   0.416   0.418   0.421   0.411   0.416   0.413   0.425   0.433   0.434   0.449   0.441   0.432   0.415   0.419   0.444   0.478   0.464   0.454   0.452   0.470   0.441   0.476   0.476   0.484   0.480   0.537   0.522   0.554   0.553
     5.65    0.389   0.351   0.350   0.356   0.368   0.371   0.401   0.420   0.410   0.412   0.363   0.378   0.388   0.403   0.429   0.448   0.412   0.429   0.420   0.429   0.461   0.458   0.451   0.458   0.447   0.467   0.442   0.467   0.465   0.474   0.504   0.526   0.549   0.551   0.540
     1.00    0.395   0.373   0.354   0.370   0.350   0.384   0.413   0.421   0.428   0.401   0.369   0.369   0.345   0.383   0.400   0.417   0.422   0.421   0.432   0.420   0.452   0.450   0.451   0.458   0.443   0.444   0.443   0.446   0.447   0.451   0.468   0.494   0.518   0.523   0.539

   Height   Standard deviation at grid points for the w component:
   168.40    0.262   0.260   0.270   0.268   0.266   0.258   0.260   0.248   0.245   0.263   0.257   0.255   0.263   0.259   0.256   0.253   0.264   0.260   0.248   0.239   0.259   0.250   0.253   0.260   0.278   0.273   0.266   0.270   0.260   0.257   0.258   0.255   0.262   0.266   0.262
   163.75    0.258   0.258   0.266   0.259   0.262   0.253   0.249   0.251   0.243   0.258   0.256   0.257   0.252   0.253   0.252   0.258   0.259   0.256   0.254   0.250   0.260   0.251   0.249   0.259   0.270   0.276   0.276   0.266   0.265   0.261   0.256   0.248   0.249   0.257   0.265
   159.10    0.261   0.252   0.265   0.266   0.257   0.242   0.251   0.255   0.255   0.258   0.265   0.254   0.258   0.260   0.263   0.253   0.256   0.261   0.265   0.260   0.254   0.251   0.257   0.262   0.265   0.267   0.268   0.262   0.261   0.262   0.254   0.252   0.250   0.265   0.255
   154.45    0.270   0.267   0.278   0.275   0.261   0.247   0.254   0.257   0.247   0.248   0.255   0.262   0.259   0.260   0.256   0.269   0.280   0.264   0.257   0.266   0.265   0.254   0.262   0.265   0.268   0.268   0.271   0.254   0.253   0.251   0.258   0.253   0.243   0.256   0.247
   149.80    0.273   0.274   0.281   0.278   0.266   0.256   0.254   0.246   0.244   0.244   0.251   0.262   0.264   0.261   0.271   0.273   0.278   0.273   0.269   0.266   0.272   0.265   0.262   0.265   0.271   0.272   0.268   0.255   0.253   0.262   0.263   0.252   0.250   0.259   0.257
   145.15    0.269   0.275   0.274   0.270   0.268   0.270   0.262   0.264   0.249   0.262   0.255   0.261   0.255   0.249   0.273   0.274   0.282   0.285   0.290   0.280   0.288   0.283   0.270   0.269   0.273   0.261   0.267   0.249   0.249   0.263   0.261   0.251   0.255   0.263   0.262
   140.50    0.264   0.263   0.271   0.264   0.285   0.284   0.284   0.267   0.272   0.272   0.258   0.251   0.258   0.258   0.272   0.292   0.291   0.284   0.299   0.288   0.281   0.284   0.279   0.269   0.261   0.269   0.264   0.253   0.258   0.263   0.264   0.263   0.257   0.263   0.261
   135.85    0.262   0.261   0.273   0.280   0.289   0.292   0.293   0.265   0.267   0.270   0.266   0.263   0.271   0.271   0.265   0.275   0.288   0.289   0.295   0.287   0.285   0.259   0.267   0.271   0.272   0.270   0.271   0.265   0.270   0.269   0.270   0.263   0.246   0.251   0.251
   131.20    0.263   0.266   0.283   0.278   0.284   0.293   0.278   0.269   0.271   0.268   0.274   0.260   0.264   0.264   0.265   0.269   0.289   0.292   0.284   0.288   0.282   0.256   0.258   0.257   0.256   0.264   0.268   0.259   0.268   0.273   0.266   0.258   0.258   0.251   0.250
   126.55    0.276   0.279   0.283   0.285   0.289   0.299   0.294   0.281   0.279   0.275   0.273   0.280   0.275   0.262   0.268   0.275   0.284   0.292   0.276   0.276   0.267   0.268   0.257   0.249   0.260   0.267   0.272   0.272   0.267   0.265   0.266   0.247   0.254   0.262   0.266
   121.90    0.283   0.271   0.275   0.273   0.281   0.289   0.291   0.279   0.277   0.273   0.274   0.264   0.265   0.262   0.257   0.265   0.282   0.284   0.278   0.270   0.262   0.274   0.260   0.252   0.267   0.274   0.278   0.263   0.264   0.267   0.258   0.252   0.262   0.263   0.252
   117.25    0.277   0.266   0.260   0.263   0.271   0.280   0.278   0.288   0.268   0.268   0.271   0.264   0.269   0.265   0.253   0.249   0.260   0.279   0.274   0.262   0.256   0.260   0.252   0.253   0.262   0.266   0.260   0.265   0.260   0.266   0.255   0.262   0.253   0.250   0.252
   112.60    0.271   0.268   0.262   0.266   0.272   0.272   0.282   0.288   0.268   0.264   0.258   0.265   0.259   0.250   0.245   0.256   0.264   0.278   0.269   0.261   0.254   0.260   0.258   0.264   0.265   0.268   0.252   0.254   0.247   0.256   0.253   0.258   0.241   0.245   0.252
   107.95    0.265   0.256   0.262   0.264   0.264   0.262   0.273   0.280   0.274   0.269   0.269   0.252   0.248   0.240   0.237   0.248   0.255   0.251   0.255   0.260   0.256   0.269   0.265   0.262   0.254   0.256   0.256   0.251   0.242   0.240   0.247   0.252   0.243   0.232   0.239
   103.30    0.254   0.251   0.253   0.264   0.266   0.262   0.275   0.280   0.278   0.263   0.261   0.261   0.252   0.245   0.241   0.248   0.240   0.249   0.249   0.252   0.252   0.267   0.259   0.259   0.251   0.254   0.257   0.250   0.242   0.237   0.242   0.233   0.238   0.233   0.236
    98.65    0.252   0.259   0.252   0.258   0.264   0.270   0.277   0.280   0.268   0.255   0.246   0.243   0.261   0.244   0.245   0.251   0.246   0.239   0.244   0.251   0.252   0.269   0.269   0.273   0.270   0.259   0.259   0.252   0.255   0.246   0.240   0.238   0.231   0.230   0.242
    94.00    0.251   0.252   0.249   0.257   0.272   0.265   0.266   0.271   0.276   0.260   0.257   0.258   0.260   0.251   0.247   0.245   0.267   0.257   0.241   0.263   0.273   0.275   0.278   0.272   0.263   0.266   0.245   0.244   0.255   0.248   0.238   0.239   0.228   0.232   0.241
    89.35    0.255   0.250   0.257   0.258   0.274   0.267   0.274   0.275   0.279   0.269   0.255   0.254   0.252   0.248   0.248   0.259   0.258   0.254   0.251   0.262   0.265   0.277   0.278   0.270   0.274   0.270   0.261   0.259   0.268   0.250   0.247   0.247   0.236   0.235   0.242
    84.70    0.242   0.241   0.252   0.250   0.271   0.265   0.261   0.268   0.273   0.272   0.260   0.255   0.248   0.247   0.243   0.254   0.261   0.261   0.256   0.257   0.263   0.267   0.264   0.262   0.260   0.269   0.263   0.267   0.264   0.251   0.252   0.249   0.246   0.240   0.238
    80.05    0.244   0.248   0.254   0.261   0.259   0.266   0.267   0.273   0.265   0.263   0.261   0.250   0.252   0.247   0.241   0.252   0.254   0.261   0.265   0.266   0.262   0.262   0.253   0.251   0.257   0.260   0.278   0.266   0.259   0.256   0.249   0.246   0.248   0.237   0.239
    75.40    0.250   0.243   0.258   0.261   0.259   0.254   0.260   0.263   0.259   0.268   0.258   0.261   0.256   0.245   0.244   0.243   0.243   0.254   0.264   0.268   0.253   0.242   0.250   0.251   0.259   0.271   0.279   0.289   0.278   0.263   0.249   0.260   0.255   0.248   0.250
    70.75    0.249   0.250   0.244   0.253   0.252   0.251   0.257   0.254   0.251   0.259   0.263   0.258   0.249   0.243   0.249   0.251   0.248   0.247   0.246   0.255   0.239   0.248   0.261   0.258   0.259   0.277   0.280   0.278   0.275   0.268   0.258   0.262   0.254   0.255   0.237
    66.10    0.248   0.238   0.245   0.253   0.247   0.241   0.262   0.256   0.261   0.260   0.264   0.255   0.251   0.238   0.246   0.240   0.237   0.246   0.249   0.241   0.243   0.243   0.242   0.246   0.253   0.269   0.276   0.278   0.263   0.265   0.258   0.261   0.267   0.263   0.264
    61.45    0.241   0.244   0.242   0.240   0.239   0.245   0.268   0.265   0.268   0.255   0.252   0.259   0.255   0.253   0.249   0.243   0.237   0.244   0.245   0.242   0.234   0.234   0.234   0.243   0.247   0.245   0.270   0.273   0.269   0.255   0.245   0.253   0.254   0.269   0.270
    56.80    0.241   0.242   0.240   0.238   0.243   0.254   0.261   0.269   0.262   0.258   0.253   0.253   0.251   0.248   0.241   0.253   0.235   0.249   0.243   0.243   0.248   0.236   0.236   0.234   0.242   0.250   0.263   0.260   0.267   0.261   0.258   0.257   0.266   0.273   0.272
    52.15    0.247   0.253   0.243   0.238   0.243   0.260   0.259   0.261   0.262   0.259   0.251   0.249   0.257   0.239   0.239   0.254   0.243   0.249   0.239   0.243   0.239   0.240   0.242   0.232   0.240   0.248   0.256   0.258   0.265   0.257   0.264   0.264   0.267   0.279   0.273
    47.50    0.254   0.254   0.248   0.245   0.241   0.236   0.249   0.253   0.237   0.256   0.247   0.242   0.239   0.242   0.239   0.243   0.241   0.242   0.235   0.238   0.238   0.245   0.247   0.254   0.240   0.247   0.251   0.255   0.255   0.263   0.261   0.269   0.273   0.270   0.277
    42.85    0.257   0.250   0.248   0.245   0.244   0.233   0.246   0.242   0.241   0.241   0.245   0.234   0.246   0.249   0.242   0.245   0.231   0.233   0.235   0.237   0.235   0.245   0.249   0.253   0.244   0.253   0.261   0.246   0.246   0.253   0.258   0.265   0.266   0.259   0.265
    38.20    0.263   0.258   0.264   0.247   0.237   0.245   0.245   0.238   0.226   0.234   0.240   0.236   0.244   0.244   0.235   0.239   0.231   0.236   0.236   0.243   0.244   0.245   0.252   0.243   0.233   0.248   0.252   0.246   0.250   0.261   0.263   0.259   0.265   0.261   0.256
    33.55    0.262   0.254   0.259   0.250   0.233   0.245   0.244   0.237   0.228   0.229   0.235   0.233   0.237   0.226   0.239   0.244   0.236   0.233   0.238   0.239   0.239   0.243   0.251   0.254   0.249   0.250   0.253   0.245   0.248   0.262   0.259   0.261   0.267   0.268   0.275
    28.90    0.270   0.261   0.264   0.257   0.252   0.255   0.253   0.240   0.229   0.237   0.240   0.235   0.237   0.225   0.229   0.245   0.241   0.242   0.237   0.251   0.240   0.251   0.251   0.246   0.247   0.245   0.245   0.243   0.257   0.274   0.269   0.268   0.271   0.264   0.273
    24.25    0.254   0.270   0.270   0.260   0.259   0.249   0.260   0.243   0.238   0.242   0.244   0.240   0.243   0.235   0.230   0.233   0.244   0.251   0.244   0.254   0.256   0.242   0.237   0.242   0.254   0.259   0.249   0.254   0.257   0.275   0.273   0.272   0.272   0.274   0.269
    19.60    0.267   0.257   0.274   0.263   0.256   0.252   0.252   0.244   0.241   0.235   0.237   0.248   0.236   0.231   0.226   0.229   0.235   0.244   0.250   0.253   0.241   0.242   0.241   0.237   0.259   0.262   0.251   0.254   0.259   0.254   0.267   0.265   0.260   0.266   0.274
    14.95    0.269   0.256   0.267   0.257   0.252   0.246   0.248   0.254   0.246   0.246   0.245   0.237   0.234   0.236   0.224   0.226   0.235   0.247   0.245   0.246   0.239   0.246   0.237   0.255   0.250   0.243   0.252   0.256   0.249   0.264   0.274   0.269   0.267   0.274   0.279
    10.30    0.258   0.263   0.261   0.255   0.251   0.243   0.242   0.247   0.247   0.247   0.245   0.238   0.240   0.234   0.229   0.232   0.223   0.237   0.241   0.234   0.239   0.237   0.249   0.256   0.249   0.256   0.252   0.252   0.250   0.256   0.262   0.277   0.275   0.263   0.271
     5.65    0.248   0.254   0.258   0.244   0.244   0.247   0.243   0.256   0.261   0.248   0.240   0.245   0.242   0.239   0.236   0.230   0.229   0.237   0.240   0.233   0.232   0.239   0.238   0.253   0.261   0.249   0.245   0.253   0.249   0.253   0.249   0.249   0.262   0.265   0.260
     1.00    0.257   0.239   0.247   0.255   0.251   0.256   0.243   0.253   0.258   0.252   0.246   0.246   0.244   0.250   0.247   0.237   0.231   0.242   0.241   0.237   0.238   0.237   0.248   0.248   0.246   0.267   0.267   0.264   0.252   0.242   0.246   0.259   0.264   0.273   0.263

   Mean standard deviation across all grid points:
      u component:    0.464 m/s
      v component:    0.437 m/s
      w component:    0.257 m/s


U-component (X) statistics from the interpolated hub point:

   Mean =   9.9913 m/s
   TI   =   4.4931 %


Processing complete.  6409 CPU seconds used.
