
This summary file was generated by TurbSim (from OpenFAST-v3.5.3) on 20-Apr-2025 at 08:14:57.


Runtime Options:

**********  Random seed #1
    RANLUX  Type of random number generator
         F  Output binary HH turbulence parameters?
         F  Output formatted turbulence parameters?
         F  Output AeroDyn HH files?
         T  Output AeroDyn FF files?
         F  Output BLADED FF files?
         F  Output tower data?
         F  Output HAWC FF files?
         F  Output formatted FF files?
         T  Output coherent turbulence time step file?
 0 -  NONE  IEC turbulence models scaled to exact specified standard deviation


Turbine/Model Specifications:

        37  Vertical grid-point matrix dimension
        35  Horizontal grid-point matrix dimension
     0.250  Time step [seconds]
   900.000  Analysis time [seconds]
   900.000  Usable output time [seconds]
    89.350  Hub height [m]
   167.400  Grid height [m]
   158.100  Grid width [m]
     0.000  Vertical flow angle [degrees]
     0.000  Horizontal flow angle [degrees]


Meteorological Boundary Conditions:

    TIMESR  User-input time series spectral model
       N/A  IEC standard
       N/A  IEC turbulence characteristic
       N/A  IEC turbulence type
       N/A  IEC Extreme Turbulence Model (ETM) "c" parameter [m/s]
       PL   Wind profile type
    90.000  Reference height [m]
    10.000  Reference wind speed [m/s]
       N/A  Jet height [m]
     0.120  Power law exponent
     0.030  Surface roughness length [m]


Non-IEC Meteorological Boundary Conditions:

    45.000  Site latitude [degrees]
     0.050  Gradient Richardson number
     0.480  Friction or shear velocity [m/s]
       N/A  Mixing layer depth [m]
       N/A  Mean hub u'w' Reynolds stress
       N/A  Mean hub u'v' Reynolds stress
       N/A  Mean hub v'w' Reynolds stress


Spatial Coherence Models:

       IEC  u-component coherence model
       IEC  v-component coherence model
       IEC  w-component coherence model
(   12.000, 0.353E-03)  u-component coherence parameters
(   12.000, 0.353E-03)  v-component coherence parameters
(   12.000, 0.353E-03)  w-component coherence parameters
       N/A  Coherence exponent


Coherent Turbulence Scaling Parameters:

.\EventData
            Name of the path containing the coherent turbulence data files
       les  Type of coherent turbulence data files
     1.000  Disturbance scale (ratio of wave height to rotor diameter)
     0.500  Fractional location of tower centerline from right
     0.500  Fractional location of hub height from the bottom of the dataset
    30.000  Minimum start time for coherent structures [seconds]


Profiles from User-Defined Time-Series Input:

  Height   Wind Speed   Horizontal Angle   Vertical Angle
   (m)        (m/s)          (deg)              (deg)    
  ------   ----------   ----------------   --------------
   94.00      10.00          -0.63                0.00


You have requested that the following file(s) be generated:

   /kfs3/scratch/agupta/Projects/RL_Incubator/FinalRuns_Veer/Seed4/./FFSim_Seed4/Cond00_v10.0_PL0.12_TI3.0/Case2_wdirp04/Seed_2/TurbSim/HighT14.bts (AeroDyn/TurbSim full-field wind file)


Turbulence Simulation Scaling Parameter Summary:

   Turbulence model used                            =  User-input time series
   Gradient Richardson number                       =    0.050
   Monin-Obukhov (M-O) z/L parameter                =    0.067
   Monin-Obukhov (M-O) length scale                 = 1340.250 m
   Mean wind speed at hub height                    =    9.991 m/s

   Wind profile type                                =  Power law
   Power law exponent                               =    0.120
   Mean shear across rotor disk                     =    0.019 (m/s)/m
   Assumed rotor diameter                           =  158.100 m
   Surface roughness length                         =    0.030 m

   Nyquist frequency of turbulent wind field        =    2.000 Hz

   Number of time steps in the FFT                  =     3600
   Number of time steps output                      =     3600
   Number of points simulated                       =     1296


Mean Flow Angles:

   Vertical   =   0.0 degrees
   Horizontal =   0.0 degrees

Mean Wind Speed Profile:

   Height    Wind Speed   Horizontal Angle  Vertical Angle  U-comp (X)   V-comp (Y)   W-comp (Z)
     (m)        (m/s)         (degrees)       (degrees)       (m/s)        (m/s)        (m/s)   
   ------    ----------   ----------------  --------------  ----------   ----------   ----------
    168.4       10.78            0.00            0.00         10.78         0.00         0.00
    163.7       10.74            0.00            0.00         10.74         0.00         0.00
    159.1       10.71            0.00            0.00         10.71         0.00         0.00
    154.4       10.67            0.00            0.00         10.67         0.00         0.00
    149.8       10.63            0.00            0.00         10.63         0.00         0.00
    145.1       10.59            0.00            0.00         10.59         0.00         0.00
    140.5       10.55            0.00            0.00         10.55         0.00         0.00
    135.8       10.51            0.00            0.00         10.51         0.00         0.00
    131.2       10.46            0.00            0.00         10.46         0.00         0.00
    126.5       10.42            0.00            0.00         10.42         0.00         0.00
    121.9       10.37            0.00            0.00         10.37         0.00         0.00
    117.2       10.32            0.00            0.00         10.32         0.00         0.00
    112.6       10.27            0.00            0.00         10.27         0.00         0.00
    107.9       10.22            0.00            0.00         10.22         0.00         0.00
    103.3       10.17            0.00            0.00         10.17         0.00         0.00
     98.6       10.11            0.00            0.00         10.11         0.00         0.00
     94.0       10.05            0.00            0.00         10.05         0.00         0.00
     89.3        9.99            0.00            0.00          9.99         0.00         0.00
     84.7        9.93            0.00            0.00          9.93         0.00         0.00
     80.0        9.86            0.00            0.00          9.86         0.00         0.00
     75.4        9.79            0.00            0.00          9.79         0.00         0.00
     70.7        9.72            0.00            0.00          9.72         0.00         0.00
     66.1        9.64            0.00            0.00          9.64         0.00         0.00
     61.4        9.55            0.00            0.00          9.55         0.00         0.00
     56.8        9.46            0.00            0.00          9.46         0.00         0.00
     52.1        9.37            0.00            0.00          9.37         0.00         0.00
     47.5        9.26            0.00            0.00          9.26         0.00         0.00
     42.8        9.15            0.00            0.00          9.15         0.00         0.00
     38.2        9.02            0.00            0.00          9.02         0.00         0.00
     33.5        8.88            0.00            0.00          8.88         0.00         0.00
     28.9        8.73            0.00            0.00          8.73         0.00         0.00
     24.2        8.54            0.00            0.00          8.54         0.00         0.00
     19.6        8.33            0.00            0.00          8.33         0.00         0.00
     14.9        8.06            0.00            0.00          8.06         0.00         0.00
     10.3        7.71            0.00            0.00          7.71         0.00         0.00
      5.6        7.17            0.00            0.00          7.17         0.00         0.00
      1.0        5.83            0.00            0.00          5.83         0.00         0.00


Harvested Random Seeds after Generation of the Random Numbers:

     65026800 K 1
            0 K 2


Hub-Height Simulated Turbulence Statistical Summary:

   Type of Wind        Min (m/s)   Mean (m/s)    Max (m/s)  Sigma (m/s)       TI (%)
   ----------------    ---------   ----------    ---------  -----------       ------
   Longitudinal (u)         9.05         9.99        10.92        0.352        3.522
   Lateral (v)             -0.69        -0.00         0.70        0.211        2.115
   Vertical (w)            -0.50        -0.00         0.45        0.143        1.433
   U component              9.05         9.99        10.92        0.352        3.522
   V component             -0.69        -0.00         0.70        0.211        2.115
   W component             -0.50        -0.00         0.45        0.143        1.433
   Horizontal (U&V)         9.05         9.99        10.93        0.352        3.520
   Total                    9.05         9.99        10.93        0.352        3.519

                       Min Reynolds     Mean Reynolds    Max Reynolds    Correlation
   Product             Stress (m/s)^2   Stress (m/s)^2   Stress (m/s)^2  Coefficient
   ----------------    --------------   --------------   --------------  -----------
   u'w'                     -0.312             0.003             0.298         0.051
   u'v'                     -0.369            -0.016             0.329        -0.215
   v'w'                     -0.126             0.004             0.254         0.122


   Friction Velocity (Ustar)  =      0.051 m/s
   Maximum Instantaneous TKE  =      0.474 (m/s)^2
   Maximum Instantaneous CTKE =      0.197 (m/s)^2


Grid Point Variance Summary:

   Y-coord  -79.05  -74.40  -69.75  -65.10  -60.45  -55.80  -51.15  -46.50  -41.85  -37.20  -32.55  -27.90  -23.25  -18.60  -13.95   -9.30   -4.65    0.00    4.65    9.30   13.95   18.60   23.25   27.90   32.55   37.20   41.85   46.50   51.15   55.80   60.45   65.10   69.75   74.40   79.05

   Height   Standard deviation at grid points for the u component:
   168.40    0.317   0.309   0.320   0.332   0.373   0.377   0.349   0.329   0.329   0.341   0.357   0.351   0.310   0.321   0.294   0.325   0.318   0.311   0.321   0.318   0.320   0.327   0.314   0.307   0.278   0.267   0.283   0.272   0.290   0.311   0.349   0.351   0.309   0.306   0.314
   163.75    0.309   0.307   0.334   0.355   0.381   0.372   0.373   0.318   0.331   0.340   0.356   0.335   0.326   0.307   0.309   0.332   0.323   0.293   0.304   0.323   0.324   0.312   0.319   0.280   0.273   0.262   0.279   0.298   0.309   0.305   0.318   0.325   0.323   0.304   0.332
   159.10    0.318   0.303   0.331   0.363   0.361   0.370   0.337   0.303   0.358   0.326   0.360   0.358   0.355   0.318   0.326   0.324   0.299   0.304   0.291   0.288   0.305   0.312   0.314   0.287   0.274   0.285   0.294   0.323   0.326   0.310   0.320   0.299   0.298   0.299   0.319
   154.45    0.318   0.316   0.353   0.374   0.377   0.368   0.338   0.351   0.345   0.352   0.380   0.389   0.349   0.363   0.314   0.321   0.314   0.300   0.313   0.293   0.318   0.330   0.308   0.311   0.309   0.293   0.300   0.311   0.336   0.338   0.313   0.300   0.294   0.270   0.311
   149.80    0.364   0.331   0.377   0.379   0.383   0.391   0.358   0.342   0.337   0.371   0.370   0.362   0.372   0.351   0.320   0.331   0.346   0.326   0.302   0.317   0.333   0.319   0.291   0.293   0.297   0.313   0.315   0.335   0.332   0.323   0.301   0.272   0.261   0.287   0.292
   145.15    0.356   0.347   0.345   0.380   0.388   0.396   0.376   0.355   0.343   0.376   0.385   0.371   0.372   0.331   0.325   0.355   0.349   0.346   0.319   0.308   0.331   0.321   0.298   0.306   0.288   0.310   0.331   0.328   0.318   0.312   0.297   0.255   0.249   0.269   0.274
   140.50    0.344   0.337   0.324   0.348   0.404   0.406   0.398   0.387   0.371   0.380   0.366   0.363   0.353   0.337   0.341   0.365   0.362   0.365   0.341   0.363   0.320   0.340   0.321   0.285   0.291   0.317   0.306   0.321   0.320   0.303   0.297   0.278   0.262   0.271   0.262
   135.85    0.359   0.343   0.376   0.373   0.395   0.445   0.419   0.390   0.387   0.387   0.397   0.372   0.361   0.354   0.378   0.367   0.370   0.337   0.352   0.344   0.342   0.326   0.323   0.297   0.313   0.317   0.307   0.303   0.302   0.298   0.309   0.288   0.264   0.249   0.252
   131.20    0.343   0.345   0.384   0.365   0.402   0.426   0.415   0.422   0.403   0.368   0.380   0.375   0.340   0.354   0.362   0.352   0.337   0.341   0.339   0.356   0.350   0.333   0.324   0.306   0.290   0.307   0.310   0.297   0.304   0.303   0.313   0.272   0.242   0.254   0.247
   126.55    0.385   0.376   0.368   0.366   0.371   0.400   0.416   0.413   0.390   0.376   0.391   0.394   0.331   0.314   0.319   0.336   0.327   0.332   0.349   0.362   0.361   0.314   0.316   0.285   0.272   0.292   0.303   0.306   0.314   0.307   0.331   0.285   0.281   0.284   0.244
   121.90    0.388   0.394   0.366   0.379   0.348   0.369   0.392   0.418   0.414   0.371   0.374   0.386   0.319   0.318   0.292   0.303   0.318   0.315   0.353   0.363   0.352   0.315   0.301   0.283   0.290   0.281   0.300   0.285   0.292   0.298   0.318   0.328   0.292   0.286   0.272
   117.25    0.419   0.404   0.381   0.384   0.388   0.373   0.376   0.406   0.399   0.375   0.389   0.357   0.341   0.327   0.293   0.289   0.316   0.320   0.358   0.385   0.360   0.335   0.317   0.303   0.315   0.289   0.303   0.291   0.294   0.311   0.306   0.313   0.280   0.284   0.294
   112.60    0.411   0.395   0.367   0.384   0.396   0.423   0.421   0.385   0.374   0.364   0.403   0.404   0.344   0.321   0.296   0.309   0.311   0.336   0.381   0.377   0.343   0.351   0.345   0.313   0.316   0.297   0.282   0.290   0.279   0.302   0.311   0.317   0.294   0.283   0.294
   107.95    0.413   0.416   0.390   0.382   0.395   0.410   0.415   0.392   0.377   0.386   0.402   0.390   0.352   0.329   0.311   0.313   0.316   0.327   0.351   0.347   0.331   0.317   0.345   0.344   0.338   0.327   0.296   0.303   0.277   0.305   0.309   0.321   0.320   0.306   0.294
   103.30    0.403   0.414   0.402   0.427   0.387   0.380   0.394   0.382   0.397   0.392   0.392   0.370   0.376   0.341   0.323   0.331   0.334   0.308   0.306   0.318   0.323   0.338   0.329   0.343   0.342   0.319   0.297   0.288   0.284   0.278   0.308   0.320   0.319   0.307   0.307
    98.65    0.423   0.393   0.395   0.413   0.397   0.401   0.385   0.387   0.383   0.383   0.382   0.385   0.370   0.337   0.320   0.351   0.317   0.314   0.297   0.302   0.296   0.317   0.356   0.330   0.335   0.347   0.349   0.336   0.321   0.343   0.328   0.331   0.327   0.313   0.311
    94.00    0.407   0.396   0.381   0.390   0.402   0.400   0.363   0.374   0.361   0.385   0.357   0.394   0.388   0.357   0.363   0.379   0.347   0.325   0.313   0.306   0.312   0.327   0.336   0.352   0.334   0.326   0.351   0.354   0.359   0.374   0.361   0.371   0.347   0.329   0.334
    89.35    0.370   0.379   0.377   0.370   0.363   0.393   0.377   0.387   0.389   0.409   0.386   0.385   0.382   0.364   0.351   0.373   0.372   0.352   0.348   0.329   0.327   0.324   0.322   0.353   0.330   0.340   0.328   0.353   0.328   0.348   0.369   0.384   0.373   0.339   0.351
    84.70    0.351   0.354   0.356   0.404   0.380   0.375   0.402   0.427   0.443   0.420   0.422   0.425   0.376   0.383   0.361   0.397   0.367   0.390   0.347   0.324   0.331   0.330   0.335   0.333   0.350   0.368   0.346   0.348   0.368   0.353   0.379   0.390   0.400   0.364   0.384
    80.05    0.356   0.356   0.376   0.397   0.419   0.392   0.419   0.434   0.449   0.432   0.415   0.418   0.390   0.405   0.405   0.419   0.428   0.406   0.384   0.382   0.346   0.356   0.356   0.380   0.366   0.365   0.377   0.387   0.355   0.360   0.388   0.383   0.393   0.383   0.374
    75.40    0.377   0.348   0.348   0.345   0.391   0.393   0.402   0.431   0.423   0.443   0.440   0.426   0.415   0.445   0.455   0.464   0.439   0.395   0.422   0.416   0.382   0.374   0.379   0.403   0.398   0.383   0.406   0.384   0.374   0.364   0.382   0.375   0.368   0.401   0.379
    70.75    0.391   0.358   0.354   0.352   0.403   0.393   0.407   0.422   0.438   0.431   0.449   0.467   0.449   0.456   0.454   0.460   0.416   0.410   0.401   0.385   0.373   0.340   0.352   0.360   0.391   0.401   0.405   0.431   0.371   0.398   0.403   0.383   0.373   0.376   0.391
    66.10    0.399   0.358   0.359   0.329   0.361   0.409   0.436   0.408   0.447   0.441   0.428   0.430   0.454   0.444   0.461   0.463   0.442   0.433   0.390   0.365   0.340   0.334   0.356   0.377   0.387   0.405   0.427   0.422   0.394   0.401   0.407   0.396   0.383   0.360   0.375
    61.45    0.372   0.383   0.354   0.334   0.377   0.407   0.413   0.412   0.425   0.436   0.435   0.437   0.449   0.438   0.452   0.453   0.426   0.425   0.416   0.406   0.376   0.380   0.422   0.424   0.443   0.426   0.433   0.400   0.393   0.397   0.385   0.390   0.364   0.358   0.351
    56.80    0.382   0.375   0.374   0.371   0.413   0.405   0.409   0.444   0.442   0.437   0.439   0.428   0.402   0.420   0.422   0.437   0.431   0.429   0.394   0.391   0.392   0.408   0.420   0.436   0.429   0.416   0.418   0.387   0.381   0.412   0.387   0.390   0.364   0.359   0.350
    52.15    0.387   0.397   0.391   0.396   0.419   0.447   0.408   0.447   0.455   0.425   0.424   0.423   0.431   0.391   0.406   0.422   0.423   0.416   0.400   0.383   0.389   0.401   0.422   0.429   0.395   0.402   0.403   0.368   0.399   0.394   0.394   0.405   0.397   0.373   0.359
    47.50    0.369   0.369   0.381   0.398   0.440   0.447   0.424   0.457   0.431   0.446   0.428   0.409   0.402   0.391   0.400   0.412   0.417   0.394   0.386   0.369   0.404   0.403   0.405   0.412   0.387   0.410   0.392   0.384   0.389   0.402   0.400   0.392   0.392   0.377   0.378
    42.85    0.391   0.391   0.401   0.432   0.433   0.417   0.438   0.431   0.441   0.408   0.392   0.420   0.397   0.412   0.401   0.397   0.384   0.404   0.383   0.398   0.382   0.413   0.395   0.381   0.390   0.384   0.410   0.404   0.378   0.397   0.406   0.411   0.431   0.386   0.378
    38.20    0.365   0.392   0.419   0.421   0.442   0.441   0.440   0.440   0.407   0.415   0.411   0.388   0.399   0.397   0.398   0.391   0.379   0.390   0.383   0.397   0.396   0.392   0.386   0.378   0.361   0.360   0.388   0.388   0.387   0.374   0.380   0.406   0.386   0.389   0.360
    33.55    0.386   0.364   0.406   0.397   0.439   0.429   0.418   0.399   0.376   0.379   0.387   0.393   0.369   0.370   0.390   0.389   0.413   0.379   0.413   0.386   0.372   0.345   0.371   0.336   0.362   0.363   0.384   0.401   0.377   0.361   0.333   0.375   0.399   0.378   0.360
    28.90    0.356   0.357   0.385   0.405   0.441   0.452   0.434   0.414   0.400   0.424   0.392   0.371   0.379   0.353   0.358   0.420   0.443   0.407   0.394   0.383   0.383   0.385   0.377   0.343   0.346   0.351   0.393   0.370   0.387   0.373   0.356   0.362   0.403   0.376   0.372
    24.25    0.340   0.340   0.377   0.357   0.400   0.441   0.434   0.435   0.410   0.428   0.404   0.415   0.384   0.369   0.387   0.404   0.426   0.412   0.410   0.421   0.423   0.371   0.384   0.354   0.350   0.357   0.383   0.395   0.403   0.400   0.368   0.376   0.395   0.386   0.388
    19.60    0.361   0.361   0.374   0.353   0.382   0.409   0.431   0.426   0.441   0.417   0.382   0.382   0.366   0.372   0.370   0.363   0.396   0.381   0.405   0.406   0.402   0.360   0.371   0.365   0.368   0.378   0.392   0.374   0.383   0.382   0.379   0.376   0.402   0.376   0.370
    14.95    0.367   0.395   0.400   0.388   0.392   0.397   0.412   0.424   0.413   0.390   0.398   0.386   0.361   0.342   0.336   0.367   0.385   0.372   0.385   0.404   0.384   0.383   0.348   0.344   0.357   0.373   0.390   0.383   0.379   0.397   0.352   0.363   0.384   0.389   0.348
    10.30    0.417   0.389   0.424   0.427   0.394   0.393   0.389   0.401   0.412   0.388   0.370   0.415   0.384   0.363   0.346   0.345   0.356   0.333   0.349   0.395   0.395   0.380   0.346   0.347   0.381   0.394   0.376   0.378   0.384   0.387   0.379   0.373   0.399   0.368   0.352
     5.65    0.420   0.398   0.414   0.417   0.398   0.388   0.384   0.351   0.381   0.394   0.402   0.410   0.415   0.399   0.372   0.353   0.336   0.346   0.377   0.380   0.390   0.368   0.353   0.368   0.380   0.386   0.372   0.387   0.419   0.408   0.380   0.401   0.400   0.365   0.365
     1.00    0.392   0.422   0.418   0.403   0.394   0.365   0.339   0.343   0.361   0.375   0.400   0.407   0.438   0.394   0.357   0.368   0.363   0.361   0.365   0.374   0.379   0.358   0.372   0.388   0.407   0.395   0.400   0.431   0.403   0.400   0.355   0.381   0.368   0.380   0.356

   Height   Standard deviation at grid points for the v component:
   168.40    0.230   0.222   0.225   0.224   0.225   0.230   0.222   0.219   0.228   0.238   0.239   0.240   0.231   0.239   0.232   0.223   0.229   0.219   0.222   0.211   0.224   0.219   0.219   0.215   0.213   0.208   0.207   0.207   0.204   0.199   0.215   0.210   0.213   0.212   0.200
   163.75    0.212   0.221   0.232   0.236   0.234   0.234   0.219   0.236   0.245   0.241   0.233   0.235   0.235   0.241   0.240   0.226   0.227   0.228   0.230   0.224   0.217   0.217   0.212   0.212   0.211   0.209   0.199   0.201   0.204   0.217   0.212   0.202   0.198   0.209   0.205
   159.10    0.224   0.230   0.235   0.240   0.228   0.238   0.232   0.243   0.245   0.247   0.249   0.236   0.226   0.236   0.244   0.233   0.232   0.230   0.228   0.225   0.218   0.213   0.216   0.220   0.219   0.205   0.202   0.211   0.204   0.224   0.205   0.209   0.204   0.203   0.209
   154.45    0.204   0.226   0.237   0.231   0.247   0.234   0.234   0.238   0.238   0.260   0.266   0.243   0.239   0.241   0.251   0.246   0.240   0.227   0.232   0.229   0.213   0.209   0.213   0.220   0.212   0.215   0.213   0.210   0.209   0.220   0.221   0.206   0.209   0.207   0.218
   149.80    0.220   0.215   0.237   0.232   0.234   0.228   0.229   0.224   0.221   0.251   0.257   0.243   0.244   0.242   0.245   0.241   0.232   0.220   0.223   0.216   0.203   0.207   0.208   0.221   0.227   0.218   0.220   0.215   0.215   0.219   0.215   0.218   0.217   0.213   0.215
   145.15    0.225   0.232   0.232   0.230   0.228   0.237   0.219   0.223   0.236   0.243   0.235   0.244   0.239   0.235   0.242   0.227   0.226   0.222   0.215   0.207   0.201   0.206   0.223   0.226   0.231   0.223   0.231   0.215   0.214   0.217   0.214   0.213   0.219   0.219   0.231
   140.50    0.235   0.225   0.231   0.224   0.230   0.231   0.224   0.233   0.226   0.228   0.232   0.235   0.228   0.220   0.223   0.214   0.216   0.228   0.218   0.207   0.200   0.209   0.230   0.226   0.225   0.231   0.235   0.222   0.216   0.215   0.224   0.233   0.220   0.217   0.227
   135.85    0.231   0.232   0.222   0.221   0.224   0.217   0.222   0.238   0.231   0.224   0.233   0.226   0.222   0.211   0.205   0.207   0.217   0.220   0.223   0.211   0.208   0.204   0.210   0.226   0.235   0.228   0.221   0.223   0.223   0.220   0.221   0.216   0.224   0.214   0.221
   131.20    0.224   0.219   0.223   0.228   0.212   0.213   0.218   0.227   0.224   0.221   0.214   0.209   0.217   0.213   0.207   0.208   0.214   0.225   0.210   0.206   0.215   0.219   0.223   0.229   0.229   0.223   0.218   0.229   0.214   0.213   0.221   0.217   0.209   0.219   0.215
   126.55    0.210   0.216   0.219   0.214   0.208   0.211   0.208   0.215   0.223   0.218   0.211   0.210   0.206   0.211   0.211   0.206   0.211   0.222   0.210   0.210   0.212   0.216   0.228   0.231   0.227   0.223   0.223   0.210   0.211   0.208   0.218   0.219   0.211   0.198   0.207
   121.90    0.209   0.218   0.217   0.215   0.205   0.206   0.210   0.202   0.209   0.210   0.209   0.197   0.187   0.202   0.202   0.187   0.201   0.209   0.211   0.219   0.218   0.225   0.234   0.226   0.223   0.214   0.214   0.208   0.208   0.212   0.214   0.202   0.204   0.202   0.211
   117.25    0.215   0.211   0.208   0.213   0.203   0.205   0.204   0.207   0.200   0.207   0.214   0.207   0.201   0.195   0.190   0.198   0.205   0.207   0.217   0.230   0.218   0.228   0.229   0.217   0.218   0.218   0.212   0.198   0.209   0.209   0.206   0.211   0.205   0.203   0.208
   112.60    0.214   0.220   0.216   0.217   0.210   0.198   0.203   0.199   0.207   0.205   0.215   0.208   0.194   0.209   0.203   0.205   0.214   0.215   0.215   0.237   0.217   0.219   0.219   0.212   0.211   0.212   0.221   0.216   0.210   0.211   0.202   0.204   0.200   0.201   0.206
   107.95    0.216   0.221   0.212   0.216   0.214   0.213   0.208   0.210   0.222   0.220   0.210   0.214   0.198   0.212   0.225   0.220   0.228   0.216   0.217   0.221   0.211   0.202   0.211   0.223   0.226   0.205   0.205   0.209   0.205   0.214   0.217   0.215   0.203   0.210   0.203
   103.30    0.210   0.210   0.203   0.218   0.209   0.218   0.211   0.212   0.208   0.219   0.214   0.206   0.205   0.218   0.229   0.219   0.228   0.216   0.209   0.219   0.218   0.208   0.213   0.217   0.217   0.214   0.217   0.228   0.219   0.209   0.221   0.228   0.210   0.204   0.193
    98.65    0.218   0.210   0.225   0.224   0.214   0.220   0.211   0.211   0.222   0.209   0.209   0.209   0.216   0.217   0.228   0.239   0.237   0.213   0.213   0.214   0.224   0.217   0.215   0.220   0.223   0.221   0.221   0.225   0.225   0.205   0.212   0.218   0.199   0.201   0.203
    94.00    0.223   0.221   0.240   0.228   0.218   0.213   0.206   0.214   0.216   0.211   0.215   0.208   0.219   0.233   0.239   0.233   0.230   0.222   0.217   0.211   0.216   0.210   0.213   0.216   0.214   0.221   0.214   0.210   0.215   0.207   0.200   0.205   0.200   0.201   0.207
    89.35    0.236   0.231   0.228   0.221   0.228   0.209   0.213   0.220   0.227   0.214   0.215   0.221   0.229   0.231   0.242   0.235   0.225   0.211   0.217   0.212   0.222   0.204   0.199   0.210   0.206   0.218   0.221   0.225   0.222   0.214   0.214   0.216   0.204   0.209   0.228
    84.70    0.240   0.237   0.222   0.222   0.226   0.213   0.219   0.221   0.213   0.206   0.204   0.222   0.215   0.226   0.249   0.241   0.228   0.226   0.212   0.205   0.217   0.215   0.210   0.207   0.216   0.204   0.209   0.208   0.219   0.204   0.205   0.214   0.216   0.226   0.223
    80.05    0.236   0.228   0.223   0.222   0.217   0.229   0.219   0.219   0.226   0.216   0.213   0.213   0.224   0.236   0.245   0.228   0.226   0.224   0.210   0.216   0.208   0.204   0.206   0.205   0.209   0.213   0.219   0.209   0.205   0.206   0.198   0.207   0.217   0.225   0.210
    75.40    0.227   0.219   0.216   0.222   0.226   0.239   0.226   0.230   0.221   0.229   0.222   0.219   0.223   0.220   0.227   0.222   0.225   0.218   0.222   0.240   0.220   0.218   0.204   0.199   0.208   0.223   0.227   0.226   0.206   0.205   0.205   0.208   0.213   0.219   0.213
    70.75    0.224   0.226   0.221   0.227   0.230   0.234   0.228   0.225   0.220   0.228   0.221   0.211   0.221   0.224   0.231   0.223   0.228   0.238   0.227   0.235   0.236   0.212   0.217   0.208   0.205   0.226   0.231   0.213   0.206   0.200   0.205   0.201   0.207   0.217   0.216
    66.10    0.214   0.221   0.216   0.220   0.229   0.233   0.229   0.225   0.221   0.227   0.224   0.216   0.214   0.226   0.219   0.221   0.225   0.225   0.221   0.228   0.225   0.221   0.222   0.206   0.217   0.221   0.215   0.212   0.187   0.205   0.208   0.209   0.210   0.216   0.201
    61.45    0.214   0.215   0.221   0.225   0.226   0.236   0.223   0.220   0.218   0.222   0.199   0.208   0.214   0.224   0.211   0.219   0.218   0.213   0.224   0.220   0.222   0.218   0.224   0.220   0.221   0.203   0.210   0.201   0.202   0.206   0.213   0.197   0.203   0.203   0.193
    56.80    0.221   0.221   0.221   0.231   0.227   0.232   0.226   0.220   0.226   0.214   0.207   0.200   0.205   0.213   0.221   0.220   0.219   0.199   0.211   0.216   0.212   0.221   0.225   0.219   0.222   0.205   0.201   0.204   0.201   0.205   0.200   0.200   0.201   0.193   0.210
    52.15    0.219   0.218   0.226   0.228   0.230   0.228   0.228   0.219   0.213   0.205   0.203   0.205   0.198   0.205   0.212   0.212   0.212   0.205   0.205   0.214   0.220   0.221   0.213   0.207   0.213   0.206   0.212   0.202   0.196   0.195   0.188   0.196   0.188   0.194   0.202
    47.50    0.216   0.222   0.226   0.231   0.225   0.220   0.215   0.213   0.213   0.213   0.217   0.216   0.207   0.202   0.212   0.211   0.212   0.207   0.207   0.204   0.206   0.208   0.210   0.209   0.210   0.212   0.211   0.211   0.222   0.208   0.207   0.202   0.205   0.197   0.207
    42.85    0.221   0.215   0.217   0.225   0.223   0.228   0.238   0.214   0.223   0.223   0.214   0.212   0.209   0.211   0.214   0.209   0.196   0.197   0.203   0.199   0.210   0.212   0.209   0.201   0.202   0.206   0.207   0.206   0.214   0.220   0.221   0.219   0.211   0.204   0.207
    38.20    0.221   0.209   0.217   0.220   0.216   0.229   0.228   0.230   0.221   0.211   0.205   0.212   0.206   0.206   0.214   0.207   0.199   0.207   0.214   0.206   0.200   0.206   0.217   0.210   0.212   0.212   0.205   0.213   0.220   0.220   0.220   0.225   0.225   0.220   0.217
    33.55    0.211   0.208   0.216   0.213   0.216   0.226   0.225   0.226   0.213   0.205   0.196   0.205   0.202   0.211   0.202   0.204   0.206   0.207   0.207   0.217   0.203   0.209   0.211   0.209   0.212   0.207   0.211   0.221   0.221   0.227   0.213   0.215   0.218   0.220   0.225
    28.90    0.202   0.204   0.215   0.216   0.212   0.208   0.216   0.216   0.210   0.208   0.213   0.212   0.212   0.215   0.214   0.213   0.198   0.213   0.212   0.203   0.213   0.216   0.210   0.209   0.208   0.216   0.229   0.227   0.232   0.245   0.227   0.213   0.221   0.215   0.218
    24.25    0.208   0.205   0.218   0.216   0.208   0.206   0.207   0.215   0.218   0.214   0.208   0.215   0.224   0.213   0.218   0.214   0.202   0.194   0.205   0.206   0.209   0.210   0.213   0.215   0.226   0.223   0.227   0.237   0.234   0.242   0.225   0.223   0.213   0.224   0.225
    19.60    0.213   0.225   0.221   0.222   0.218   0.219   0.227   0.224   0.228   0.212   0.207   0.211   0.216   0.220   0.214   0.221   0.201   0.196   0.213   0.218   0.224   0.205   0.218   0.219   0.220   0.212   0.226   0.234   0.230   0.224   0.226   0.228   0.231   0.222   0.226
    14.95    0.217   0.229   0.221   0.228   0.229   0.233   0.235   0.242   0.228   0.219   0.200   0.204   0.213   0.210   0.214   0.228   0.220   0.205   0.213   0.211   0.215   0.214   0.226   0.208   0.215   0.208   0.211   0.218   0.229   0.226   0.241   0.248   0.245   0.233   0.229
    10.30    0.232   0.229   0.229   0.227   0.221   0.232   0.228   0.237   0.235   0.219   0.215   0.198   0.208   0.213   0.210   0.213   0.216   0.207   0.206   0.209   0.219   0.223   0.216   0.204   0.213   0.219   0.227   0.228   0.233   0.233   0.246   0.235   0.245   0.232   0.240
     5.65    0.225   0.233   0.236   0.231   0.224   0.240   0.229   0.231   0.233   0.229   0.224   0.205   0.206   0.210   0.220   0.214   0.211   0.208   0.206   0.207   0.220   0.220   0.215   0.204   0.215   0.218   0.221   0.233   0.243   0.238   0.244   0.237   0.236   0.231   0.231
     1.00    0.225   0.232   0.235   0.232   0.236   0.236   0.223   0.223   0.224   0.225   0.232   0.214   0.212   0.205   0.214   0.210   0.201   0.203   0.215   0.216   0.219   0.220   0.222   0.221   0.219   0.215   0.232   0.230   0.240   0.233   0.231   0.234   0.229   0.236   0.224

   Height   Standard deviation at grid points for the w component:
   168.40    0.150   0.145   0.145   0.145   0.140   0.137   0.135   0.142   0.142   0.148   0.150   0.152   0.154   0.152   0.151   0.151   0.146   0.143   0.146   0.142   0.138   0.139   0.140   0.147   0.142   0.136   0.134   0.134   0.137   0.139   0.138   0.140   0.139   0.135   0.139
   163.75    0.145   0.149   0.150   0.146   0.144   0.143   0.139   0.147   0.145   0.149   0.149   0.149   0.154   0.154   0.152   0.153   0.148   0.150   0.150   0.152   0.149   0.147   0.145   0.149   0.148   0.140   0.136   0.140   0.135   0.137   0.142   0.141   0.142   0.147   0.141
   159.10    0.144   0.144   0.151   0.151   0.143   0.143   0.140   0.151   0.152   0.149   0.148   0.143   0.145   0.153   0.151   0.153   0.144   0.149   0.150   0.150   0.152   0.147   0.149   0.147   0.146   0.141   0.140   0.138   0.138   0.140   0.141   0.142   0.141   0.143   0.146
   154.45    0.142   0.142   0.146   0.144   0.144   0.142   0.142   0.146   0.149   0.151   0.143   0.150   0.145   0.151   0.150   0.155   0.150   0.148   0.150   0.147   0.151   0.150   0.149   0.147   0.141   0.138   0.139   0.139   0.141   0.140   0.146   0.144   0.144   0.144   0.146
   149.80    0.136   0.135   0.137   0.139   0.142   0.141   0.142   0.145   0.151   0.144   0.143   0.148   0.150   0.150   0.152   0.149   0.147   0.150   0.147   0.143   0.147   0.151   0.148   0.148   0.145   0.145   0.141   0.143   0.139   0.145   0.147   0.148   0.142   0.145   0.138
   145.15    0.136   0.134   0.140   0.140   0.146   0.138   0.138   0.137   0.142   0.146   0.142   0.150   0.155   0.149   0.155   0.152   0.147   0.151   0.146   0.148   0.138   0.146   0.151   0.146   0.151   0.145   0.143   0.137   0.138   0.141   0.152   0.153   0.145   0.149   0.148
   140.50    0.135   0.132   0.135   0.144   0.145   0.138   0.136   0.133   0.136   0.140   0.142   0.143   0.149   0.148   0.150   0.151   0.147   0.144   0.147   0.145   0.139   0.141   0.142   0.144   0.149   0.149   0.139   0.142   0.139   0.141   0.147   0.147   0.147   0.149   0.152
   135.85    0.133   0.136   0.140   0.139   0.139   0.134   0.137   0.131   0.132   0.134   0.137   0.142   0.142   0.139   0.146   0.145   0.152   0.140   0.147   0.150   0.144   0.140   0.143   0.146   0.147   0.146   0.144   0.141   0.148   0.147   0.143   0.147   0.149   0.151   0.147
   131.20    0.136   0.141   0.141   0.135   0.140   0.139   0.136   0.130   0.134   0.140   0.141   0.147   0.150   0.142   0.143   0.146   0.150   0.147   0.144   0.145   0.142   0.142   0.141   0.146   0.152   0.147   0.146   0.149   0.156   0.152   0.149   0.147   0.153   0.146   0.146
   126.55    0.142   0.141   0.138   0.137   0.139   0.137   0.135   0.137   0.130   0.135   0.141   0.142   0.149   0.150   0.147   0.145   0.148   0.146   0.142   0.142   0.145   0.147   0.146   0.150   0.151   0.150   0.153   0.157   0.156   0.150   0.151   0.147   0.154   0.152   0.143
   121.90    0.143   0.140   0.138   0.135   0.134   0.133   0.134   0.135   0.135   0.141   0.139   0.144   0.146   0.144   0.149   0.147   0.147   0.145   0.141   0.147   0.145   0.152   0.152   0.153   0.159   0.152   0.153   0.155   0.156   0.151   0.150   0.154   0.153   0.150   0.149
   117.25    0.141   0.141   0.135   0.132   0.140   0.142   0.137   0.135   0.135   0.141   0.144   0.144   0.140   0.142   0.140   0.149   0.147   0.150   0.144   0.149   0.144   0.144   0.150   0.154   0.154   0.157   0.156   0.159   0.160   0.158   0.154   0.154   0.157   0.151   0.149
   112.60    0.142   0.142   0.139   0.141   0.145   0.146   0.139   0.143   0.142   0.147   0.143   0.141   0.143   0.140   0.142   0.143   0.145   0.149   0.145   0.142   0.142   0.146   0.145   0.146   0.144   0.148   0.148   0.157   0.156   0.158   0.151   0.155   0.154   0.156   0.158
   107.95    0.141   0.141   0.145   0.148   0.149   0.142   0.145   0.144   0.149   0.143   0.144   0.140   0.138   0.144   0.139   0.142   0.145   0.148   0.145   0.139   0.143   0.141   0.146   0.142   0.144   0.134   0.145   0.145   0.154   0.156   0.152   0.150   0.150   0.157   0.158
   103.30    0.138   0.140   0.148   0.149   0.149   0.144   0.148   0.145   0.146   0.143   0.141   0.138   0.134   0.144   0.141   0.145   0.148   0.148   0.142   0.139   0.146   0.150   0.145   0.139   0.141   0.144   0.146   0.147   0.145   0.144   0.149   0.155   0.153   0.155   0.154
    98.65    0.143   0.141   0.144   0.150   0.151   0.143   0.146   0.148   0.144   0.138   0.139   0.139   0.137   0.147   0.145   0.142   0.142   0.141   0.142   0.142   0.148   0.144   0.146   0.148   0.147   0.148   0.149   0.151   0.143   0.146   0.151   0.151   0.157   0.154   0.151
    94.00    0.147   0.154   0.152   0.150   0.146   0.141   0.146   0.151   0.142   0.140   0.138   0.140   0.145   0.144   0.144   0.138   0.143   0.145   0.143   0.147   0.147   0.145   0.151   0.151   0.149   0.148   0.154   0.154   0.151   0.149   0.148   0.147   0.151   0.149   0.146
    89.35    0.152   0.152   0.152   0.154   0.146   0.136   0.143   0.146   0.145   0.147   0.141   0.141   0.152   0.151   0.148   0.142   0.148   0.143   0.143   0.145   0.152   0.146   0.146   0.151   0.152   0.152   0.150   0.149   0.153   0.158   0.154   0.149   0.146   0.147   0.148
    84.70    0.147   0.142   0.142   0.149   0.147   0.144   0.145   0.142   0.145   0.145   0.145   0.144   0.149   0.148   0.140   0.139   0.143   0.139   0.141   0.149   0.153   0.147   0.143   0.150   0.149   0.146   0.145   0.150   0.158   0.161   0.148   0.141   0.138   0.142   0.148
    80.05    0.143   0.144   0.144   0.146   0.152   0.148   0.145   0.145   0.143   0.147   0.141   0.144   0.144   0.142   0.138   0.143   0.144   0.136   0.141   0.142   0.146   0.139   0.144   0.148   0.151   0.144   0.152   0.149   0.150   0.158   0.143   0.140   0.137   0.142   0.142
    75.40    0.149   0.144   0.145   0.143   0.149   0.150   0.146   0.143   0.142   0.141   0.139   0.145   0.142   0.146   0.144   0.146   0.140   0.138   0.139   0.141   0.142   0.148   0.144   0.145   0.145   0.148   0.149   0.150   0.152   0.152   0.145   0.148   0.146   0.147   0.142
    70.75    0.149   0.143   0.149   0.147   0.150   0.148   0.145   0.142   0.139   0.142   0.137   0.137   0.140   0.146   0.143   0.142   0.140   0.139   0.145   0.139   0.142   0.145   0.144   0.149   0.150   0.146   0.147   0.142   0.147   0.154   0.151   0.150   0.146   0.150   0.145
    66.10    0.146   0.151   0.147   0.151   0.152   0.143   0.140   0.141   0.142   0.145   0.134   0.132   0.140   0.138   0.140   0.139   0.140   0.140   0.140   0.143   0.138   0.145   0.140   0.144   0.148   0.146   0.140   0.142   0.136   0.143   0.151   0.146   0.150   0.147   0.147
    61.45    0.144   0.148   0.149   0.153   0.152   0.144   0.142   0.140   0.140   0.144   0.137   0.135   0.142   0.143   0.135   0.139   0.137   0.141   0.143   0.143   0.140   0.143   0.143   0.142   0.142   0.138   0.142   0.140   0.135   0.141   0.141   0.151   0.151   0.147   0.146
    56.80    0.147   0.146   0.148   0.152   0.147   0.147   0.142   0.137   0.140   0.135   0.143   0.136   0.139   0.136   0.136   0.139   0.143   0.145   0.141   0.137   0.140   0.140   0.137   0.137   0.140   0.138   0.136   0.137   0.137   0.136   0.138   0.135   0.141   0.142   0.143
    52.15    0.151   0.151   0.147   0.151   0.147   0.147   0.143   0.141   0.139   0.143   0.137   0.139   0.136   0.141   0.142   0.141   0.145   0.143   0.138   0.138   0.135   0.137   0.139   0.137   0.138   0.139   0.140   0.138   0.139   0.133   0.135   0.137   0.139   0.143   0.148
    47.50    0.149   0.153   0.146   0.148   0.152   0.145   0.149   0.142   0.140   0.146   0.143   0.138   0.141   0.141   0.145   0.145   0.142   0.145   0.143   0.135   0.139   0.136   0.137   0.135   0.138   0.137   0.137   0.138   0.138   0.137   0.137   0.139   0.140   0.145   0.148
    42.85    0.144   0.150   0.149   0.150   0.154   0.145   0.143   0.144   0.138   0.147   0.142   0.142   0.138   0.148   0.143   0.146   0.141   0.141   0.145   0.139   0.137   0.137   0.139   0.138   0.133   0.132   0.134   0.138   0.138   0.135   0.143   0.138   0.144   0.145   0.148
    38.20    0.146   0.144   0.144   0.145   0.147   0.148   0.143   0.143   0.145   0.149   0.143   0.138   0.144   0.146   0.149   0.147   0.139   0.141   0.145   0.139   0.141   0.144   0.143   0.140   0.136   0.136   0.138   0.136   0.138   0.139   0.136   0.139   0.141   0.147   0.152
    33.55    0.143   0.142   0.144   0.147   0.144   0.143   0.136   0.141   0.149   0.147   0.145   0.148   0.148   0.149   0.145   0.143   0.137   0.139   0.143   0.142   0.144   0.141   0.143   0.138   0.138   0.140   0.136   0.137   0.140   0.139   0.143   0.145   0.148   0.150   0.154
    28.90    0.150   0.149   0.153   0.146   0.142   0.140   0.139   0.145   0.146   0.151   0.147   0.144   0.147   0.151   0.142   0.135   0.141   0.139   0.145   0.146   0.145   0.146   0.145   0.143   0.143   0.139   0.138   0.138   0.135   0.137   0.143   0.140   0.147   0.154   0.150
    24.25    0.146   0.154   0.149   0.152   0.148   0.142   0.148   0.148   0.143   0.149   0.143   0.145   0.144   0.144   0.144   0.142   0.140   0.139   0.139   0.140   0.142   0.144   0.145   0.143   0.137   0.143   0.135   0.141   0.141   0.139   0.144   0.143   0.146   0.150   0.148
    19.60    0.147   0.147   0.144   0.143   0.147   0.147   0.151   0.139   0.145   0.148   0.143   0.143   0.143   0.149   0.152   0.149   0.146   0.146   0.139   0.139   0.142   0.138   0.143   0.139   0.140   0.138   0.131   0.140   0.141   0.143   0.148   0.149   0.147   0.147   0.146
    14.95    0.149   0.144   0.144   0.145   0.144   0.145   0.146   0.143   0.144   0.143   0.146   0.143   0.143   0.151   0.152   0.144   0.143   0.141   0.143   0.143   0.147   0.148   0.144   0.143   0.142   0.137   0.135   0.141   0.145   0.148   0.152   0.147   0.147   0.149   0.151
    10.30    0.145   0.147   0.150   0.145   0.142   0.143   0.144   0.145   0.145   0.148   0.143   0.141   0.145   0.144   0.148   0.148   0.145   0.141   0.142   0.142   0.148   0.146   0.143   0.144   0.139   0.141   0.143   0.140   0.142   0.148   0.150   0.145   0.144   0.151   0.154
     5.65    0.149   0.149   0.148   0.147   0.146   0.144   0.143   0.143   0.144   0.144   0.138   0.137   0.143   0.146   0.151   0.139   0.142   0.140   0.142   0.142   0.146   0.145   0.142   0.146   0.141   0.145   0.145   0.142   0.141   0.140   0.141   0.144   0.148   0.147   0.151
     1.00    0.145   0.150   0.151   0.150   0.147   0.146   0.145   0.146   0.139   0.140   0.143   0.144   0.144   0.143   0.146   0.145   0.141   0.143   0.143   0.144   0.145   0.142   0.144   0.147   0.145   0.144   0.143   0.134   0.141   0.144   0.141   0.147   0.146   0.149   0.149

   Mean standard deviation across all grid points:
      u component:    0.366 m/s
      v component:    0.218 m/s
      w component:    0.144 m/s


U-component (X) statistics from the interpolated hub point:

   Mean =   9.9913 m/s
   TI   =   3.5222 %


Processing complete.  6242.8 CPU seconds used.
