
This summary file was generated by TurbSim (from OpenFAST-v3.5.3) on 20-Apr-2025 at 07:44:35.


Runtime Options:

 916078875  Random seed #1
    RANLUX  Type of random number generator
         F  Output binary HH turbulence parameters?
         F  Output formatted turbulence parameters?
         F  Output AeroDyn HH files?
         T  Output AeroDyn FF files?
         F  Output BLADED FF files?
         F  Output tower data?
         F  Output HAWC FF files?
         F  Output formatted FF files?
         T  Output coherent turbulence time step file?
 0 -  NONE  IEC turbulence models scaled to exact specified standard deviation


Turbine/Model Specifications:

        37  Vertical grid-point matrix dimension
        35  Horizontal grid-point matrix dimension
     0.250  Time step [seconds]
   900.000  Analysis time [seconds]
   900.000  Usable output time [seconds]
    89.350  Hub height [m]
   167.400  Grid height [m]
   158.100  Grid width [m]
     0.000  Vertical flow angle [degrees]
     0.000  Horizontal flow angle [degrees]


Meteorological Boundary Conditions:

    TIMESR  User-input time series spectral model
       N/A  IEC standard
       N/A  IEC turbulence characteristic
       N/A  IEC turbulence type
       N/A  IEC Extreme Turbulence Model (ETM) "c" parameter [m/s]
       PL   Wind profile type
    90.000  Reference height [m]
    10.000  Reference wind speed [m/s]
       N/A  Jet height [m]
     0.120  Power law exponent
     0.030  Surface roughness length [m]


Non-IEC Meteorological Boundary Conditions:

    45.000  Site latitude [degrees]
     0.050  Gradient Richardson number
     0.480  Friction or shear velocity [m/s]
       N/A  Mixing layer depth [m]
       N/A  Mean hub u'w' Reynolds stress
       N/A  Mean hub u'v' Reynolds stress
       N/A  Mean hub v'w' Reynolds stress


Spatial Coherence Models:

       IEC  u-component coherence model
       IEC  v-component coherence model
       IEC  w-component coherence model
(   12.000, 0.353E-03)  u-component coherence parameters
(   12.000, 0.353E-03)  v-component coherence parameters
(   12.000, 0.353E-03)  w-component coherence parameters
       N/A  Coherence exponent


Coherent Turbulence Scaling Parameters:

.\EventData
            Name of the path containing the coherent turbulence data files
       les  Type of coherent turbulence data files
     1.000  Disturbance scale (ratio of wave height to rotor diameter)
     0.500  Fractional location of tower centerline from right
     0.500  Fractional location of hub height from the bottom of the dataset
    30.000  Minimum start time for coherent structures [seconds]


Profiles from User-Defined Time-Series Input:

  Height   Wind Speed   Horizontal Angle   Vertical Angle
   (m)        (m/s)          (deg)              (deg)    
  ------   ----------   ----------------   --------------
   94.00      10.00          -0.63               -0.00


You have requested that the following file(s) be generated:

   /kfs3/scratch/agupta/Projects/RL_Incubator/FinalRuns_Veer/Seed4/./FFSim_Seed4/Cond00_v10.0_PL0.12_TI7.5/Case2_wdirp04/Seed_0/TurbSim/HighT17.bts (AeroDyn/TurbSim full-field wind file)


Turbulence Simulation Scaling Parameter Summary:

   Turbulence model used                            =  User-input time series
   Gradient Richardson number                       =    0.050
   Monin-Obukhov (M-O) z/L parameter                =    0.067
   Monin-Obukhov (M-O) length scale                 = 1340.250 m
   Mean wind speed at hub height                    =    9.991 m/s

   Wind profile type                                =  Power law
   Power law exponent                               =    0.120
   Mean shear across rotor disk                     =    0.019 (m/s)/m
   Assumed rotor diameter                           =  158.100 m
   Surface roughness length                         =    0.030 m

   Nyquist frequency of turbulent wind field        =    2.000 Hz

   Number of time steps in the FFT                  =     3600
   Number of time steps output                      =     3600
   Number of points simulated                       =     1296


Mean Flow Angles:

   Vertical   =   0.0 degrees
   Horizontal =   0.0 degrees

Mean Wind Speed Profile:

   Height    Wind Speed   Horizontal Angle  Vertical Angle  U-comp (X)   V-comp (Y)   W-comp (Z)
     (m)        (m/s)         (degrees)       (degrees)       (m/s)        (m/s)        (m/s)   
   ------    ----------   ----------------  --------------  ----------   ----------   ----------
    168.4       10.78            0.00            0.00         10.78         0.00         0.00
    163.7       10.74            0.00            0.00         10.74         0.00         0.00
    159.1       10.71            0.00            0.00         10.71         0.00         0.00
    154.4       10.67            0.00            0.00         10.67         0.00         0.00
    149.8       10.63            0.00            0.00         10.63         0.00         0.00
    145.1       10.59            0.00            0.00         10.59         0.00         0.00
    140.5       10.55            0.00            0.00         10.55         0.00         0.00
    135.8       10.51            0.00            0.00         10.51         0.00         0.00
    131.2       10.46            0.00            0.00         10.46         0.00         0.00
    126.5       10.42            0.00            0.00         10.42         0.00         0.00
    121.9       10.37            0.00            0.00         10.37         0.00         0.00
    117.2       10.32            0.00            0.00         10.32         0.00         0.00
    112.6       10.27            0.00            0.00         10.27         0.00         0.00
    107.9       10.22            0.00            0.00         10.22         0.00         0.00
    103.3       10.17            0.00            0.00         10.17         0.00         0.00
     98.6       10.11            0.00            0.00         10.11         0.00         0.00
     94.0       10.05            0.00            0.00         10.05         0.00         0.00
     89.3        9.99            0.00            0.00          9.99         0.00         0.00
     84.7        9.93            0.00            0.00          9.93         0.00         0.00
     80.0        9.86            0.00            0.00          9.86         0.00         0.00
     75.4        9.79            0.00            0.00          9.79         0.00         0.00
     70.7        9.72            0.00            0.00          9.72         0.00         0.00
     66.1        9.64            0.00            0.00          9.64         0.00         0.00
     61.4        9.55            0.00            0.00          9.55         0.00         0.00
     56.8        9.46            0.00            0.00          9.46         0.00         0.00
     52.1        9.37            0.00            0.00          9.37         0.00         0.00
     47.5        9.26            0.00            0.00          9.26         0.00         0.00
     42.8        9.15            0.00            0.00          9.15         0.00         0.00
     38.2        9.02            0.00            0.00          9.02         0.00         0.00
     33.5        8.88            0.00            0.00          8.88         0.00         0.00
     28.9        8.73            0.00            0.00          8.73         0.00         0.00
     24.2        8.54            0.00            0.00          8.54         0.00         0.00
     19.6        8.33            0.00            0.00          8.33         0.00         0.00
     14.9        8.06            0.00            0.00          8.06         0.00         0.00
     10.3        7.71            0.00            0.00          7.71         0.00         0.00
      5.6        7.17            0.00            0.00          7.17         0.00         0.00
      1.0        5.83            0.00            0.00          5.83         0.00         0.00


Harvested Random Seeds after Generation of the Random Numbers:

     65026800 K 1
            0 K 2


Hub-Height Simulated Turbulence Statistical Summary:

   Type of Wind        Min (m/s)   Mean (m/s)    Max (m/s)  Sigma (m/s)       TI (%)
   ----------------    ---------   ----------    ---------  -----------       ------
   Longitudinal (u)         7.12         9.99        11.96        0.727        7.275
   Lateral (v)             -2.04        -0.00         1.91        0.639        6.391
   Vertical (w)            -1.26        -0.00         1.19        0.360        3.605
   U component              7.12         9.99        11.96        0.727        7.275
   V component             -2.04        -0.00         1.91        0.639        6.391
   W component             -1.26        -0.00         1.19        0.360        3.605
   Horizontal (U&V)         7.18        10.01        11.96        0.725        7.240
   Total                    7.18        10.02        11.97        0.724        7.229

                       Min Reynolds     Mean Reynolds    Max Reynolds    Correlation
   Product             Stress (m/s)^2   Stress (m/s)^2   Stress (m/s)^2  Coefficient
   ----------------    --------------   --------------   --------------  -----------
   u'w'                     -1.634             0.005             1.571         0.018
   u'v'                     -2.423             0.030             4.335         0.064
   v'w'                     -1.564             0.016             1.768         0.069


   Friction Velocity (Ustar)  =      0.069 m/s
   Maximum Instantaneous TKE  =      4.842 (m/s)^2
   Maximum Instantaneous CTKE =      2.212 (m/s)^2


Grid Point Variance Summary:

   Y-coord  -79.05  -74.40  -69.75  -65.10  -60.45  -55.80  -51.15  -46.50  -41.85  -37.20  -32.55  -27.90  -23.25  -18.60  -13.95   -9.30   -4.65    0.00    4.65    9.30   13.95   18.60   23.25   27.90   32.55   37.20   41.85   46.50   51.15   55.80   60.45   65.10   69.75   74.40   79.05

   Height   Standard deviation at grid points for the u component:
   168.40    0.887   0.864   0.860   0.807   0.814   0.831   0.823   0.842   0.775   0.781   0.826   0.822   0.821   0.812   0.821   0.798   0.799   0.721   0.768   0.749   0.700   0.689   0.706   0.722   0.702   0.717   0.640   0.656   0.657   0.661   0.695   0.638   0.667   0.688   0.659
   163.75    0.809   0.839   0.854   0.770   0.773   0.798   0.848   0.846   0.800   0.812   0.825   0.799   0.811   0.822   0.825   0.774   0.807   0.741   0.805   0.798   0.725   0.714   0.713   0.670   0.710   0.681   0.632   0.622   0.601   0.676   0.688   0.647   0.617   0.664   0.635
   159.10    0.791   0.825   0.841   0.835   0.792   0.781   0.788   0.755   0.829   0.800   0.831   0.783   0.819   0.816   0.853   0.854   0.798   0.731   0.758   0.792   0.786   0.802   0.734   0.678   0.705   0.694   0.633   0.616   0.641   0.684   0.649   0.602   0.577   0.602   0.608
   154.45    0.869   0.907   0.885   0.899   0.861   0.812   0.756   0.800   0.821   0.798   0.851   0.769   0.774   0.847   0.797   0.788   0.758   0.801   0.769   0.807   0.819   0.837   0.790   0.733   0.723   0.698   0.640   0.686   0.657   0.634   0.581   0.569   0.570   0.614   0.606
   149.80    0.963   0.981   0.967   0.880   0.862   0.813   0.810   0.770   0.806   0.762   0.789   0.749   0.849   0.819   0.792   0.761   0.815   0.783   0.746   0.796   0.802   0.826   0.787   0.743   0.780   0.740   0.683   0.711   0.630   0.622   0.634   0.602   0.575   0.597   0.573
   145.15    0.993   0.975   0.974   0.954   0.925   0.863   0.878   0.812   0.850   0.816   0.783   0.818   0.831   0.766   0.750   0.729   0.790   0.727   0.773   0.830   0.868   0.808   0.808   0.801   0.765   0.727   0.716   0.682   0.635   0.630   0.595   0.624   0.626   0.601   0.601
   140.50    0.998   1.021   1.019   0.962   0.897   0.894   0.884   0.957   0.890   0.826   0.810   0.826   0.798   0.807   0.765   0.708   0.699   0.781   0.799   0.766   0.767   0.788   0.814   0.783   0.745   0.748   0.693   0.657   0.634   0.603   0.601   0.619   0.641   0.635   0.561
   135.85    0.897   0.967   1.014   0.993   0.908   0.911   0.906   0.953   0.900   0.888   0.897   0.860   0.855   0.802   0.788   0.793   0.693   0.725   0.784   0.763   0.718   0.761   0.718   0.736   0.750   0.692   0.682   0.581   0.624   0.605   0.595   0.633   0.605   0.632   0.596
   131.20    0.893   0.927   0.915   0.944   0.911   0.906   0.953   0.921   0.900   0.892   0.923   0.888   0.890   0.861   0.827   0.813   0.735   0.671   0.705   0.763   0.771   0.786   0.739   0.703   0.707   0.649   0.618   0.618   0.653   0.610   0.583   0.595   0.563   0.617   0.636
   126.55    0.831   0.865   0.886   0.942   0.904   0.924   0.929   0.912   0.898   0.887   0.940   0.917   0.837   0.871   0.808   0.770   0.669   0.639   0.642   0.675   0.757   0.725   0.723   0.717   0.679   0.608   0.664   0.631   0.606   0.607   0.618   0.560   0.576   0.601   0.629
   121.90    0.856   0.878   0.909   0.962   0.951   0.970   0.910   0.917   0.898   0.919   0.961   0.870   0.862   0.823   0.777   0.758   0.703   0.684   0.649   0.702   0.719   0.744   0.677   0.659   0.634   0.670   0.644   0.588   0.626   0.601   0.634   0.628   0.613   0.592   0.606
   117.25    0.834   0.853   0.869   0.859   0.875   0.867   0.871   0.950   0.983   0.953   0.936   0.918   0.863   0.790   0.788   0.750   0.694   0.668   0.655   0.645   0.685   0.719   0.663   0.651   0.621   0.629   0.640   0.644   0.616   0.612   0.640   0.647   0.640   0.595   0.590
   112.60    0.816   0.879   0.861   0.888   0.813   0.812   0.876   0.887   0.905   0.889   0.920   0.922   0.844   0.787   0.752   0.673   0.648   0.603   0.664   0.700   0.696   0.686   0.674   0.652   0.626   0.645   0.619   0.619   0.611   0.648   0.629   0.676   0.707   0.629   0.599
   107.95    0.817   0.867   0.904   0.795   0.817   0.843   0.858   0.856   0.912   0.951   0.910   0.937   0.803   0.790   0.700   0.657   0.683   0.669   0.695   0.671   0.688   0.690   0.697   0.648   0.656   0.686   0.652   0.638   0.628   0.563   0.602   0.669   0.700   0.655   0.563
   103.30    0.870   0.823   0.821   0.838   0.817   0.854   0.900   0.892   0.943   0.973   0.914   0.844   0.846   0.853   0.806   0.706   0.688   0.727   0.701   0.709   0.679   0.685   0.682   0.681   0.704   0.661   0.666   0.647   0.608   0.593   0.567   0.615   0.637   0.595   0.579
    98.65    0.871   0.812   0.836   0.795   0.854   0.897   0.912   0.960   0.918   0.996   0.958   0.924   0.882   0.931   0.821   0.762   0.734   0.767   0.747   0.727   0.723   0.656   0.677   0.706   0.675   0.704   0.643   0.632   0.654   0.635   0.612   0.603   0.602   0.585   0.563
    94.00    0.928   0.860   0.867   0.845   0.866   0.963   0.970   0.952   1.007   0.976   0.993   0.957   0.911   0.874   0.870   0.843   0.783   0.780   0.760   0.688   0.675   0.653   0.681   0.651   0.643   0.700   0.667   0.639   0.669   0.635   0.682   0.654   0.590   0.530   0.530
    89.35    0.833   0.883   0.938   0.914   0.925   0.919   0.931   0.993   1.032   1.022   1.024   0.978   0.907   0.824   0.846   0.844   0.813   0.727   0.716   0.666   0.612   0.686   0.697   0.688   0.666   0.692   0.686   0.666   0.640   0.679   0.650   0.649   0.617   0.539   0.522
    84.70    0.853   0.898   0.862   0.841   0.875   0.912   0.896   0.924   0.951   0.953   0.949   0.964   0.895   0.830   0.804   0.744   0.721   0.683   0.722   0.699   0.650   0.683   0.751   0.748   0.694   0.654   0.659   0.665   0.662   0.633   0.663   0.684   0.590   0.575   0.510
    80.05    0.946   0.907   0.792   0.848   0.849   0.842   0.924   0.976   0.985   0.857   0.926   0.920   0.900   0.852   0.822   0.802   0.716   0.681   0.695   0.744   0.681   0.716   0.711   0.694   0.699   0.659   0.686   0.682   0.630   0.609   0.624   0.624   0.617   0.597   0.517
    75.40    0.918   0.810   0.890   0.892   0.796   0.829   0.876   0.923   0.944   0.882   0.874   0.885   0.873   0.775   0.831   0.817   0.730   0.744   0.728   0.730   0.726   0.703   0.737   0.744   0.759   0.722   0.669   0.669   0.675   0.685   0.688   0.670   0.675   0.617   0.587
    70.75    0.863   0.886   0.899   0.861   0.853   0.871   0.929   0.879   0.866   0.932   0.838   0.830   0.831   0.778   0.805   0.755   0.737   0.773   0.778   0.806   0.800   0.737   0.707   0.784   0.726   0.690   0.742   0.729   0.741   0.776   0.717   0.729   0.757   0.663   0.610
    66.10    0.871   0.877   0.896   0.886   0.955   0.935   0.862   0.858   0.874   0.889   0.856   0.848   0.831   0.812   0.770   0.713   0.788   0.801   0.785   0.816   0.776   0.796   0.779   0.805   0.728   0.720   0.757   0.833   0.778   0.802   0.836   0.833   0.800   0.771   0.681
    61.45    0.842   0.856   0.981   0.926   0.951   0.885   0.859   0.855   0.813   0.812   0.841   0.805   0.791   0.879   0.835   0.816   0.783   0.801   0.813   0.782   0.755   0.794   0.810   0.742   0.732   0.755   0.837   0.835   0.822   0.840   0.922   0.960   0.906   0.777   0.695
    56.80    0.830   0.850   0.982   0.993   0.925   0.846   0.865   0.888   0.863   0.873   0.769   0.809   0.767   0.819   0.875   0.889   0.824   0.812   0.799   0.763   0.724   0.774   0.790   0.780   0.727   0.853   0.904   0.873   0.883   0.854   0.905   0.904   0.879   0.799   0.746
    52.15    0.875   0.851   0.936   0.954   0.959   0.899   0.842   0.854   0.878   0.828   0.768   0.825   0.776   0.820   0.903   0.824   0.879   0.818   0.832   0.834   0.736   0.768   0.757   0.806   0.800   0.810   0.901   0.991   0.900   0.880   0.835   0.859   0.821   0.821   0.779
    47.50    0.794   0.823   0.930   0.885   0.890   0.842   0.879   0.877   0.882   0.840   0.803   0.762   0.780   0.825   0.873   0.805   0.826   0.824   0.836   0.782   0.729   0.770   0.826   0.843   0.920   0.900   0.950   0.969   0.940   0.864   0.815   0.798   0.782   0.799   0.757
    42.85    0.823   0.850   0.887   0.912   0.886   0.831   0.841   0.876   0.898   0.817   0.832   0.854   0.786   0.797   0.777   0.785   0.760   0.782   0.732   0.811   0.765   0.720   0.808   0.834   0.919   0.921   0.887   0.943   0.923   0.872   0.774   0.785   0.796   0.760   0.684
    38.20    0.827   0.876   0.882   0.856   0.849   0.863   0.850   0.872   0.831   0.811   0.892   0.867   0.819   0.781   0.751   0.718   0.730   0.672   0.707   0.743   0.758   0.726   0.776   0.826   0.877   0.861   0.865   0.894   0.904   0.795   0.725   0.735   0.741   0.743   0.699
    33.55    0.749   0.893   0.957   0.883   0.823   0.832   0.877   0.837   0.817   0.829   0.833   0.838   0.828   0.825   0.726   0.750   0.711   0.676   0.670   0.656   0.700   0.754   0.736   0.738   0.821   0.884   0.877   0.879   0.868   0.791   0.680   0.704   0.628   0.695   0.656
    28.90    0.796   0.896   0.945   0.873   0.812   0.822   0.845   0.881   0.808   0.841   0.852   0.861   0.812   0.765   0.751   0.719   0.721   0.701   0.678   0.694   0.681   0.690   0.747   0.785   0.811   0.861   0.867   0.848   0.796   0.766   0.723   0.681   0.666   0.671   0.632
    24.25    0.808   0.886   0.908   0.917   0.845   0.866   0.831   0.796   0.863   0.802   0.814   0.804   0.757   0.747   0.723   0.669   0.703   0.725   0.666   0.726   0.712   0.717   0.701   0.780   0.778   0.766   0.789   0.775   0.790   0.743   0.734   0.701   0.659   0.667   0.677
    19.60    0.841   0.883   0.907   0.928   0.922   0.901   0.914   0.862   0.880   0.870   0.787   0.780   0.810   0.756   0.773   0.763   0.709   0.689   0.677   0.694   0.714   0.724   0.721   0.766   0.798   0.715   0.782   0.835   0.801   0.716   0.696   0.699   0.715   0.684   0.668
    14.95    0.829   0.902   0.866   0.910   0.930   0.899   0.842   0.852   0.825   0.793   0.813   0.764   0.828   0.792   0.792   0.753   0.739   0.715   0.656   0.626   0.664   0.719   0.706   0.781   0.772   0.733   0.766   0.781   0.800   0.769   0.735   0.702   0.691   0.718   0.690
    10.30    0.810   0.856   0.876   0.912   0.962   0.942   0.921   0.841   0.825   0.831   0.821   0.808   0.792   0.833   0.819   0.751   0.697   0.724   0.730   0.697   0.689   0.759   0.719   0.739   0.803   0.784   0.778   0.723   0.741   0.748   0.768   0.803   0.738   0.667   0.689
     5.65    0.833   0.871   0.857   0.901   0.876   0.937   0.922   0.847   0.839   0.820   0.810   0.791   0.792   0.830   0.849   0.805   0.732   0.748   0.803   0.746   0.761   0.747   0.752   0.761   0.792   0.780   0.769   0.773   0.794   0.793   0.784   0.729   0.716   0.738   0.704
     1.00    0.856   0.835   0.920   0.892   0.865   0.870   0.922   0.892   0.829   0.869   0.884   0.872   0.901   0.902   0.881   0.805   0.768   0.747   0.744   0.824   0.718   0.735   0.800   0.753   0.791   0.772   0.742   0.801   0.806   0.763   0.751   0.708   0.755   0.769   0.757

   Height   Standard deviation at grid points for the v component:
   168.40    0.680   0.639   0.702   0.656   0.631   0.622   0.655   0.653   0.690   0.687   0.725   0.725   0.706   0.695   0.717   0.667   0.674   0.665   0.632   0.666   0.684   0.631   0.625   0.622   0.610   0.599   0.633   0.582   0.590   0.587   0.568   0.584   0.529   0.520   0.564
   163.75    0.709   0.663   0.703   0.738   0.671   0.649   0.620   0.678   0.678   0.663   0.631   0.666   0.672   0.696   0.685   0.655   0.652   0.629   0.631   0.618   0.649   0.616   0.592   0.638   0.595   0.622   0.600   0.574   0.579   0.579   0.571   0.570   0.542   0.541   0.531
   159.10    0.686   0.658   0.683   0.707   0.657   0.624   0.628   0.659   0.671   0.623   0.646   0.670   0.672   0.671   0.650   0.628   0.621   0.628   0.643   0.630   0.658   0.607   0.594   0.596   0.577   0.612   0.617   0.596   0.589   0.610   0.589   0.558   0.585   0.597   0.564
   154.45    0.612   0.668   0.699   0.680   0.696   0.640   0.657   0.674   0.646   0.635   0.611   0.647   0.678   0.664   0.654   0.627   0.602   0.619   0.647   0.659   0.633   0.572   0.609   0.615   0.615   0.592   0.598   0.587   0.599   0.590   0.592   0.617   0.574   0.604   0.616
   149.80    0.611   0.666   0.668   0.670   0.683   0.664   0.671   0.676   0.677   0.661   0.654   0.689   0.634   0.656   0.678   0.678   0.591   0.582   0.624   0.646   0.631   0.649   0.646   0.587   0.620   0.593   0.622   0.635   0.608   0.570   0.589   0.572   0.571   0.585   0.612
   145.15    0.595   0.631   0.650   0.618   0.685   0.644   0.677   0.647   0.648   0.657   0.653   0.666   0.646   0.633   0.620   0.618   0.623   0.602   0.648   0.699   0.658   0.653   0.638   0.621   0.647   0.616   0.662   0.657   0.639   0.615   0.620   0.563   0.552   0.569   0.573
   140.50    0.612   0.630   0.638   0.640   0.654   0.652   0.635   0.705   0.692   0.681   0.709   0.725   0.657   0.610   0.639   0.613   0.689   0.741   0.719   0.697   0.693   0.691   0.672   0.684   0.643   0.657   0.646   0.673   0.623   0.623   0.606   0.617   0.600   0.587   0.595
   135.85    0.617   0.634   0.629   0.685   0.712   0.658   0.628   0.689   0.708   0.696   0.705   0.711   0.640   0.627   0.674   0.692   0.675   0.711   0.741   0.716   0.721   0.766   0.707   0.706   0.628   0.617   0.614   0.641   0.630   0.614   0.618   0.623   0.595   0.606   0.594
   131.20    0.608   0.659   0.682   0.674   0.666   0.643   0.582   0.658   0.669   0.677   0.669   0.686   0.643   0.646   0.632   0.680   0.669   0.697   0.683   0.694   0.706   0.739   0.737   0.703   0.655   0.636   0.656   0.652   0.632   0.628   0.593   0.624   0.645   0.638   0.615
   126.55    0.630   0.651   0.661   0.676   0.646   0.606   0.587   0.614   0.638   0.668   0.682   0.670   0.630   0.617   0.645   0.664   0.667   0.675   0.691   0.700   0.708   0.726   0.736   0.681   0.619   0.664   0.618   0.652   0.618   0.622   0.583   0.618   0.593   0.643   0.652
   121.90    0.660   0.600   0.614   0.625   0.633   0.598   0.581   0.625   0.607   0.621   0.667   0.627   0.615   0.645   0.626   0.606   0.645   0.708   0.681   0.683   0.698   0.713   0.715   0.699   0.671   0.627   0.646   0.630   0.603   0.602   0.588   0.558   0.620   0.648   0.655
   117.25    0.658   0.632   0.614   0.619   0.614   0.635   0.582   0.589   0.623   0.633   0.665   0.652   0.670   0.656   0.622   0.627   0.662   0.687   0.706   0.690   0.760   0.707   0.715   0.699   0.665   0.662   0.645   0.652   0.604   0.610   0.570   0.571   0.607   0.644   0.660
   112.60    0.665   0.645   0.616   0.628   0.618   0.632   0.604   0.613   0.628   0.638   0.670   0.679   0.703   0.641   0.701   0.606   0.637   0.636   0.670   0.710   0.761   0.753   0.733   0.723   0.651   0.642   0.658   0.620   0.594   0.609   0.596   0.565   0.602   0.623   0.627
   107.95    0.691   0.675   0.655   0.647   0.649   0.646   0.667   0.681   0.661   0.663   0.653   0.675   0.682   0.642   0.668   0.640   0.588   0.588   0.646   0.700   0.717   0.683   0.721   0.748   0.677   0.676   0.655   0.607   0.646   0.664   0.579   0.592   0.558   0.609   0.656
   103.30    0.740   0.737   0.665   0.672   0.653   0.709   0.709   0.681   0.690   0.679   0.687   0.684   0.687   0.648   0.640   0.588   0.597   0.583   0.634   0.666   0.686   0.674   0.681   0.647   0.630   0.628   0.651   0.649   0.641   0.648   0.576   0.616   0.590   0.625   0.650
    98.65    0.708   0.725   0.665   0.653   0.677   0.676   0.699   0.676   0.694   0.692   0.697   0.687   0.676   0.637   0.640   0.624   0.604   0.640   0.621   0.639   0.658   0.706   0.672   0.620   0.617   0.647   0.689   0.633   0.607   0.589   0.591   0.601   0.590   0.593   0.637
    94.00    0.739   0.718   0.681   0.659   0.632   0.661   0.673   0.671   0.649   0.673   0.671   0.701   0.698   0.691   0.661   0.678   0.673   0.636   0.611   0.642   0.670   0.666   0.657   0.601   0.623   0.652   0.621   0.578   0.590   0.583   0.580   0.587   0.587   0.604   0.644
    89.35    0.713   0.717   0.686   0.640   0.665   0.724   0.665   0.639   0.664   0.703   0.678   0.670   0.683   0.669   0.634   0.649   0.641   0.639   0.658   0.645   0.644   0.652   0.653   0.605   0.619   0.588   0.596   0.583   0.593   0.608   0.604   0.554   0.595   0.594   0.652
    84.70    0.675   0.694   0.643   0.600   0.634   0.663   0.660   0.625   0.670   0.708   0.655   0.650   0.640   0.648   0.660   0.629   0.656   0.651   0.692   0.676   0.649   0.666   0.675   0.648   0.642   0.600   0.598   0.630   0.597   0.625   0.583   0.589   0.600   0.606   0.639
    80.05    0.663   0.623   0.616   0.637   0.669   0.644   0.638   0.611   0.648   0.656   0.639   0.636   0.615   0.598   0.617   0.628   0.634   0.643   0.665   0.640   0.650   0.689   0.648   0.630   0.611   0.622   0.589   0.598   0.618   0.612   0.594   0.625   0.598   0.605   0.638
    75.40    0.628   0.628   0.616   0.600   0.635   0.623   0.636   0.598   0.609   0.629   0.618   0.602   0.559   0.550   0.555   0.605   0.594   0.618   0.609   0.654   0.669   0.677   0.610   0.601   0.608   0.621   0.627   0.600   0.553   0.591   0.558   0.584   0.563   0.601   0.600
    70.75    0.607   0.613   0.610   0.612   0.622   0.618   0.598   0.625   0.602   0.628   0.612   0.588   0.578   0.519   0.544   0.570   0.583   0.610   0.616   0.624   0.665   0.681   0.604   0.591   0.601   0.582   0.615   0.571   0.590   0.614   0.575   0.596   0.615   0.591   0.577
    66.10    0.583   0.589   0.595   0.542   0.596   0.647   0.660   0.681   0.638   0.614   0.625   0.581   0.564   0.555   0.549   0.572   0.608   0.623   0.667   0.696   0.639   0.633   0.648   0.626   0.559   0.565   0.568   0.563   0.580   0.559   0.567   0.603   0.563   0.608   0.595
    61.45    0.566   0.580   0.564   0.583   0.617   0.681   0.654   0.675   0.656   0.615   0.648   0.655   0.629   0.571   0.567   0.578   0.586   0.601   0.649   0.658   0.642   0.600   0.634   0.570   0.543   0.555   0.578   0.571   0.551   0.524   0.574   0.596   0.563   0.563   0.595
    56.80    0.596   0.583   0.582   0.597   0.601   0.670   0.704   0.691   0.677   0.693   0.629   0.642   0.602   0.560   0.549   0.602   0.585   0.576   0.616   0.622   0.600   0.585   0.566   0.542   0.559   0.557   0.561   0.554   0.566   0.548   0.563   0.569   0.577   0.575   0.584
    52.15    0.590   0.619   0.595   0.611   0.634   0.668   0.690   0.677   0.702   0.707   0.652   0.603   0.557   0.559   0.512   0.541   0.570   0.606   0.640   0.624   0.604   0.577   0.553   0.552   0.520   0.580   0.570   0.562   0.596   0.558   0.552   0.572   0.572   0.559   0.569
    47.50    0.637   0.650   0.675   0.636   0.627   0.645   0.699   0.703   0.682   0.671   0.659   0.590   0.532   0.539   0.532   0.530   0.573   0.569   0.588   0.599   0.617   0.621   0.563   0.562   0.572   0.573   0.592   0.604   0.618   0.597   0.621   0.594   0.557   0.579   0.581
    42.85    0.637   0.626   0.667   0.601   0.624   0.605   0.631   0.646   0.632   0.617   0.572   0.532   0.533   0.541   0.553   0.602   0.577   0.595   0.573   0.610   0.626   0.635   0.599   0.575   0.612   0.635   0.682   0.644   0.614   0.657   0.624   0.608   0.610   0.603   0.595
    38.20    0.622   0.610   0.651   0.622   0.594   0.557   0.557   0.571   0.582   0.537   0.513   0.559   0.564   0.533   0.580   0.594   0.611   0.607   0.610   0.639   0.630   0.635   0.651   0.651   0.643   0.633   0.658   0.640   0.638   0.652   0.641   0.660   0.670   0.638   0.602
    33.55    0.679   0.628   0.602   0.659   0.602   0.547   0.530   0.560   0.546   0.570   0.568   0.537   0.571   0.570   0.577   0.643   0.653   0.621   0.678   0.620   0.636   0.667   0.687   0.651   0.632   0.615   0.619   0.583   0.599   0.625   0.657   0.644   0.661   0.614   0.627
    28.90    0.698   0.646   0.656   0.662   0.648   0.631   0.602   0.576   0.613   0.583   0.620   0.616   0.657   0.670   0.605   0.624   0.652   0.679   0.649   0.652   0.667   0.678   0.680   0.685   0.635   0.604   0.583   0.637   0.648   0.664   0.678   0.635   0.678   0.624   0.590
    24.25    0.681   0.634   0.648   0.664   0.628   0.612   0.639   0.612   0.601   0.615   0.615   0.644   0.668   0.734   0.636   0.652   0.690   0.663   0.702   0.695   0.687   0.686   0.688   0.672   0.694   0.662   0.634   0.646   0.662   0.648   0.644   0.619   0.636   0.628   0.595
    19.60    0.702   0.649   0.659   0.632   0.542   0.606   0.584   0.624   0.598   0.602   0.686   0.706   0.751   0.740   0.720   0.696   0.670   0.707   0.695   0.742   0.711   0.702   0.705   0.682   0.641   0.624   0.618   0.630   0.647   0.625   0.646   0.597   0.612   0.638   0.623
    14.95    0.641   0.632   0.630   0.620   0.590   0.565   0.591   0.607   0.623   0.624   0.666   0.711   0.741   0.757   0.755   0.728   0.712   0.713   0.719   0.766   0.753   0.704   0.685   0.682   0.648   0.654   0.692   0.633   0.649   0.579   0.624   0.596   0.569   0.598   0.584
    10.30    0.627   0.608   0.617   0.598   0.613   0.601   0.608   0.589   0.593   0.572   0.663   0.708   0.735   0.716   0.730   0.706   0.689   0.693   0.730   0.802   0.785   0.772   0.716   0.688   0.663   0.633   0.648   0.661   0.673   0.610   0.612   0.576   0.562   0.549   0.605
     5.65    0.605   0.662   0.611   0.591   0.606   0.619   0.590   0.599   0.555   0.550   0.615   0.676   0.676   0.660   0.701   0.712   0.706   0.673   0.739   0.804   0.821   0.732   0.721   0.724   0.650   0.660   0.683   0.634   0.638   0.610   0.604   0.587   0.572   0.586   0.587
     1.00    0.610   0.630   0.619   0.610   0.581   0.575   0.564   0.574   0.566   0.565   0.566   0.624   0.658   0.654   0.680   0.695   0.711   0.695   0.745   0.767   0.805   0.739   0.715   0.742   0.668   0.647   0.697   0.657   0.655   0.650   0.608   0.615   0.611   0.630   0.655

   Height   Standard deviation at grid points for the w component:
   168.40    0.368   0.382   0.384   0.392   0.383   0.388   0.382   0.378   0.355   0.342   0.345   0.355   0.347   0.342   0.349   0.363   0.351   0.345   0.339   0.346   0.338   0.337   0.345   0.344   0.351   0.366   0.338   0.353   0.347   0.354   0.356   0.356   0.337   0.359   0.351
   163.75    0.376   0.368   0.369   0.376   0.387   0.380   0.390   0.387   0.373   0.345   0.334   0.350   0.347   0.342   0.351   0.363   0.351   0.340   0.348   0.345   0.350   0.341   0.347   0.356   0.348   0.355   0.356   0.353   0.356   0.354   0.385   0.371   0.352   0.360   0.364
   159.10    0.364   0.369   0.378   0.392   0.381   0.390   0.404   0.400   0.378   0.368   0.341   0.359   0.344   0.351   0.354   0.351   0.347   0.353   0.355   0.355   0.346   0.344   0.347   0.356   0.364   0.355   0.354   0.363   0.365   0.353   0.372   0.378   0.360   0.354   0.364
   154.45    0.363   0.369   0.373   0.404   0.387   0.384   0.383   0.380   0.393   0.362   0.361   0.349   0.360   0.353   0.351   0.355   0.341   0.344   0.358   0.363   0.347   0.336   0.343   0.348   0.360   0.366   0.359   0.357   0.369   0.376   0.377   0.378   0.370   0.342   0.347
   149.80    0.374   0.384   0.369   0.382   0.387   0.377   0.387   0.390   0.386   0.388   0.367   0.345   0.352   0.340   0.348   0.342   0.352   0.342   0.364   0.353   0.353   0.345   0.348   0.374   0.372   0.374   0.362   0.378   0.371   0.364   0.369   0.361   0.359   0.371   0.352
   145.15    0.374   0.356   0.383   0.372   0.379   0.387   0.383   0.393   0.400   0.388   0.376   0.365   0.351   0.349   0.349   0.356   0.342   0.341   0.351   0.357   0.354   0.347   0.362   0.381   0.387   0.373   0.400   0.407   0.376   0.360   0.355   0.353   0.358   0.373   0.351
   140.50    0.358   0.359   0.377   0.383   0.381   0.380   0.383   0.390   0.386   0.384   0.377   0.364   0.357   0.367   0.346   0.347   0.350   0.337   0.335   0.345   0.357   0.368   0.366   0.379   0.393   0.397   0.413   0.389   0.369   0.360   0.358   0.346   0.360   0.365   0.348
   135.85    0.357   0.361   0.381   0.374   0.374   0.372   0.374   0.381   0.389   0.382   0.383   0.376   0.362   0.364   0.355   0.350   0.350   0.356   0.340   0.341   0.370   0.383   0.376   0.377   0.379   0.386   0.411   0.398   0.358   0.373   0.375   0.371   0.366   0.360   0.343
   131.20    0.356   0.365   0.380   0.369   0.367   0.377   0.365   0.369   0.367   0.379   0.379   0.388   0.391   0.373   0.363   0.358   0.359   0.354   0.366   0.357   0.355   0.356   0.352   0.368   0.378   0.395   0.384   0.376   0.365   0.370   0.365   0.365   0.371   0.351   0.351
   126.55    0.367   0.357   0.364   0.375   0.363   0.379   0.376   0.366   0.359   0.382   0.388   0.396   0.386   0.372   0.376   0.368   0.366   0.358   0.351   0.353   0.351   0.353   0.348   0.377   0.376   0.380   0.387   0.357   0.381   0.359   0.358   0.364   0.348   0.355   0.372
   121.90    0.355   0.365   0.381   0.371   0.377   0.374   0.370   0.369   0.375   0.372   0.374   0.389   0.373   0.369   0.378   0.368   0.359   0.357   0.346   0.340   0.337   0.350   0.355   0.374   0.383   0.383   0.372   0.371   0.394   0.373   0.359   0.369   0.378   0.371   0.371
   117.25    0.369   0.365   0.376   0.371   0.380   0.381   0.380   0.398   0.400   0.390   0.381   0.376   0.373   0.362   0.365   0.361   0.364   0.361   0.343   0.336   0.340   0.330   0.347   0.357   0.370   0.369   0.368   0.374   0.392   0.376   0.365   0.368   0.366   0.359   0.374
   112.60    0.380   0.374   0.375   0.371   0.367   0.380   0.392   0.412   0.405   0.390   0.369   0.371   0.368   0.368   0.360   0.350   0.359   0.358   0.340   0.341   0.330   0.347   0.351   0.345   0.352   0.370   0.355   0.373   0.377   0.367   0.361   0.354   0.360   0.358   0.369
   107.95    0.384   0.392   0.374   0.365   0.373   0.386   0.377   0.385   0.390   0.374   0.376   0.373   0.367   0.378   0.360   0.351   0.370   0.356   0.348   0.346   0.352   0.343   0.356   0.362   0.342   0.348   0.359   0.345   0.349   0.363   0.366   0.354   0.338   0.345   0.351
   103.30    0.398   0.383   0.364   0.359   0.361   0.364   0.366   0.356   0.376   0.369   0.371   0.372   0.365   0.370   0.358   0.353   0.366   0.380   0.367   0.358   0.360   0.369   0.363   0.364   0.356   0.345   0.338   0.341   0.355   0.370   0.353   0.341   0.346   0.353   0.351
    98.65    0.393   0.379   0.360   0.357   0.347   0.353   0.351   0.362   0.370   0.368   0.375   0.379   0.377   0.365   0.348   0.360   0.356   0.364   0.382   0.371   0.378   0.371   0.354   0.356   0.347   0.354   0.342   0.355   0.373   0.365   0.362   0.356   0.352   0.360   0.360
    94.00    0.391   0.386   0.355   0.359   0.353   0.358   0.364   0.355   0.357   0.363   0.378   0.375   0.354   0.355   0.362   0.355   0.351   0.358   0.372   0.396   0.367   0.367   0.363   0.344   0.348   0.339   0.355   0.348   0.364   0.377   0.380   0.351   0.345   0.360   0.350
    89.35    0.383   0.382   0.368   0.353   0.369   0.367   0.356   0.349   0.359   0.371   0.378   0.371   0.358   0.358   0.354   0.363   0.357   0.360   0.385   0.383   0.356   0.360   0.348   0.368   0.355   0.366   0.361   0.367   0.377   0.373   0.366   0.352   0.364   0.355   0.360
    84.70    0.381   0.362   0.368   0.371   0.368   0.368   0.357   0.358   0.369   0.366   0.378   0.378   0.371   0.360   0.355   0.365   0.376   0.367   0.371   0.378   0.371   0.367   0.367   0.364   0.362   0.354   0.341   0.355   0.356   0.354   0.364   0.372   0.360   0.358   0.350
    80.05    0.391   0.377   0.368   0.380   0.374   0.364   0.359   0.373   0.361   0.365   0.372   0.399   0.380   0.376   0.362   0.346   0.358   0.364   0.382   0.377   0.369   0.366   0.362   0.370   0.370   0.357   0.352   0.369   0.370   0.359   0.374   0.383   0.366   0.366   0.363
    75.40    0.371   0.392   0.369   0.374   0.355   0.351   0.370   0.363   0.351   0.368   0.377   0.379   0.374   0.372   0.350   0.342   0.358   0.365   0.368   0.366   0.352   0.346   0.357   0.360   0.361   0.365   0.350   0.361   0.361   0.368   0.368   0.362   0.363   0.347   0.345
    70.75    0.375   0.380   0.384   0.375   0.356   0.353   0.365   0.365   0.353   0.373   0.376   0.367   0.371   0.360   0.358   0.366   0.365   0.352   0.343   0.336   0.349   0.353   0.354   0.356   0.359   0.367   0.350   0.338   0.335   0.337   0.347   0.341   0.341   0.344   0.346
    66.10    0.372   0.374   0.364   0.360   0.366   0.347   0.361   0.352   0.346   0.369   0.377   0.389   0.369   0.357   0.367   0.368   0.393   0.360   0.345   0.348   0.341   0.340   0.350   0.356   0.355   0.350   0.339   0.348   0.362   0.336   0.329   0.330   0.331   0.343   0.341
    61.45    0.359   0.353   0.361   0.351   0.356   0.353   0.351   0.363   0.347   0.348   0.365   0.376   0.370   0.384   0.372   0.368   0.373   0.381   0.360   0.363   0.351   0.336   0.349   0.355   0.366   0.361   0.346   0.347   0.352   0.334   0.335   0.319   0.339   0.331   0.334
    56.80    0.355   0.361   0.356   0.354   0.349   0.353   0.353   0.358   0.348   0.346   0.368   0.380   0.365   0.384   0.376   0.365   0.378   0.378   0.364   0.351   0.360   0.352   0.351   0.351   0.361   0.357   0.353   0.346   0.346   0.332   0.334   0.334   0.330   0.344   0.342
    52.15    0.346   0.346   0.352   0.356   0.350   0.367   0.359   0.354   0.347   0.351   0.367   0.362   0.383   0.396   0.402   0.377   0.386   0.370   0.378   0.367   0.364   0.346   0.334   0.353   0.362   0.367   0.366   0.361   0.353   0.333   0.334   0.340   0.349   0.351   0.349
    47.50    0.356   0.354   0.360   0.351   0.346   0.358   0.357   0.366   0.370   0.370   0.366   0.360   0.389   0.399   0.401   0.395   0.392   0.374   0.364   0.367   0.365   0.356   0.358   0.365   0.369   0.363   0.364   0.361   0.362   0.340   0.333   0.344   0.345   0.346   0.350
    42.85    0.380   0.372   0.371   0.369   0.361   0.362   0.369   0.388   0.369   0.380   0.378   0.381   0.374   0.386   0.397   0.385   0.397   0.389   0.374   0.388   0.380   0.357   0.371   0.368   0.375   0.370   0.373   0.360   0.347   0.356   0.341   0.353   0.355   0.360   0.355
    38.20    0.386   0.389   0.386   0.376   0.372   0.374   0.366   0.366   0.375   0.376   0.374   0.370   0.379   0.367   0.370   0.377   0.382   0.381   0.378   0.389   0.381   0.366   0.360   0.359   0.356   0.378   0.351   0.362   0.357   0.341   0.352   0.352   0.356   0.355   0.371
    33.55    0.370   0.376   0.370   0.365   0.360   0.370   0.393   0.381   0.362   0.369   0.370   0.384   0.383   0.382   0.384   0.387   0.373   0.386   0.398   0.385   0.376   0.366   0.343   0.362   0.352   0.354   0.366   0.362   0.354   0.344   0.358   0.354   0.341   0.363   0.363
    28.90    0.378   0.379   0.357   0.361   0.374   0.367   0.374   0.375   0.377   0.387   0.384   0.396   0.391   0.394   0.374   0.371   0.378   0.401   0.398   0.396   0.395   0.385   0.380   0.383   0.361   0.355   0.358   0.348   0.333   0.337   0.349   0.373   0.359   0.364   0.352
    24.25    0.367   0.364   0.370   0.367   0.356   0.372   0.368   0.380   0.374   0.378   0.378   0.380   0.384   0.371   0.372   0.375   0.380   0.389   0.408   0.390   0.392   0.381   0.376   0.372   0.365   0.360   0.350   0.343   0.325   0.333   0.348   0.356   0.358   0.361   0.348
    19.60    0.357   0.361   0.347   0.365   0.373   0.353   0.367   0.375   0.365   0.362   0.361   0.362   0.372   0.366   0.375   0.372   0.387   0.384   0.383   0.376   0.397   0.382   0.373   0.351   0.367   0.362   0.360   0.343   0.343   0.335   0.339   0.342   0.346   0.346   0.342
    14.95    0.355   0.344   0.355   0.367   0.369   0.357   0.368   0.379   0.371   0.353   0.359   0.366   0.376   0.382   0.401   0.376   0.393   0.391   0.396   0.380   0.385   0.373   0.373   0.368   0.346   0.356   0.351   0.342   0.339   0.337   0.334   0.336   0.342   0.342   0.336
    10.30    0.366   0.357   0.357   0.362   0.356   0.360   0.371   0.372   0.371   0.355   0.356   0.362   0.364   0.380   0.403   0.402   0.395   0.380   0.378   0.385   0.373   0.364   0.349   0.354   0.363   0.351   0.354   0.339   0.330   0.335   0.348   0.345   0.336   0.351   0.350
     5.65    0.363   0.362   0.361   0.371   0.370   0.356   0.363   0.370   0.348   0.353   0.352   0.362   0.372   0.376   0.372   0.383   0.381   0.377   0.373   0.362   0.362   0.363   0.358   0.352   0.368   0.354   0.360   0.363   0.345   0.345   0.346   0.344   0.352   0.343   0.350
     1.00    0.362   0.363   0.360   0.353   0.358   0.360   0.359   0.364   0.360   0.357   0.363   0.362   0.368   0.370   0.379   0.384   0.374   0.380   0.380   0.372   0.380   0.375   0.359   0.360   0.365   0.353   0.374   0.379   0.372   0.372   0.358   0.354   0.366   0.365   0.364

   Mean standard deviation across all grid points:
      u component:    0.781 m/s
      v component:    0.635 m/s
      w component:    0.364 m/s


U-component (X) statistics from the interpolated hub point:

   Mean =   9.9913 m/s
   TI   =   7.2748 %


Processing complete.  6434.5 CPU seconds used.
