
This summary file was generated by TurbSim (from OpenFAST-v3.5.3) on 19-Apr-2025 at 23:11:10.


Runtime Options:

 376932526  Random seed #1
    RANLUX  Type of random number generator
         F  Output binary HH turbulence parameters?
         F  Output formatted turbulence parameters?
         F  Output AeroDyn HH files?
         T  Output AeroDyn FF files?
         F  Output BLADED FF files?
         F  Output tower data?
         F  Output HAWC FF files?
         F  Output formatted FF files?
         T  Output coherent turbulence time step file?
 0 -  NONE  IEC turbulence models scaled to exact specified standard deviation


Turbine/Model Specifications:

        39  Vertical grid-point matrix dimension
       193  Horizontal grid-point matrix dimension
     0.250  Time step [seconds]
   900.000  Analysis time [seconds]
   900.000  Usable output time [seconds]
   177.700  Hub height [m]
   353.400  Grid height [m]
  1785.600  Grid width [m]
     0.000  Vertical flow angle [degrees]
     0.000  Horizontal flow angle [degrees]


Meteorological Boundary Conditions:

    IECKAI  IEC Kaimal spectral model
         1  IEC standard: IEC 61400-1 Ed. 3: 2005
     6.000  Percent turbulence intensity, IEC 61400-1 Ed. 3: 2005
       NTM  IEC Normal Turbulence Model
       N/A  IEC Extreme Turbulence Model (ETM) "c" parameter [m/s]
       USR  Wind profile type
    90.000  Reference height [m]
       N/A  Reference wind speed [m/s]
       N/A  Jet height [m]
       N/A  Power law exponent
     0.030  Surface roughness length [m]


Non-IEC Meteorological Boundary Conditions:

       N/A  Site latitude [degrees]
       N/A  Gradient Richardson number
       N/A  Friction or shear velocity [m/s]
       N/A  Mixing layer depth [m]
       N/A  Mean hub u'w' Reynolds stress
       N/A  Mean hub u'v' Reynolds stress
       N/A  Mean hub v'w' Reynolds stress


Spatial Coherence Models:

       IEC  u-component coherence model
       IEC  v-component coherence model
       IEC  w-component coherence model
(   12.000, 0.353E-03)  u-component coherence parameters
(   12.000, 0.353E-03)  v-component coherence parameters
(   12.000, 0.353E-03)  w-component coherence parameters
       N/A  Coherence exponent


User-Defined Profiles:

  Height   Wind Speed   Horizontal Angle
   (m)        (m/s)          (deg)      
  ------   ----------   ----------------
  353.40      10.00         318.19
  334.80      10.00         321.14
  316.20      10.00         324.10
  297.60      10.00         327.05
  279.00      10.00         330.00
  260.40      10.00         332.95
  241.80      10.00         335.90
  223.20      10.00         338.86
  204.60      10.00         341.81
  186.00      10.00         344.76
  167.40      10.00         347.71
  148.80      10.00         350.67
  130.20      10.00         353.62
  111.60      10.00         356.57
   93.00      10.00         359.52
   74.40      10.00           2.48
   55.80      10.00           5.43
   37.20      10.00           8.38
   18.60      10.00          11.33
    0.00      10.00          14.29


You have requested that the following file(s) be generated:

   /kfs3/scratch/agupta/Projects/RL_Incubator/FinalRuns_Veer/Seed4/./FFSim_Seed4/Cond00_v10.0_PL0.12_TI6.0/Seed_6/Low.bts (AeroDyn/TurbSim full-field wind file)


Turbulence Simulation Scaling Parameter Summary:

   Turbulence model used                            =  IEC Kaimal
   Turbulence characteristic                        =  User-specified
   IEC standard                                     =  IEC 61400-1 Ed. 3: 2005
   Mean wind speed at hub height                    =   10.000 m/s
   Characteristic value of standard deviation       =    0.600 m/s
   Turbulence scale                                 =   42.000 m
   u-component integral scale                       =  340.200 m
   Coherency scale                                  =  340.200 m
   Characteristic value of hub turbulence intensity =    6.000%
   Gradient Richardson number                       =    0.000

   Wind profile type                                =  Linear interpolation of user-defined profile
   Equivalent power law exponent (upper rotor disk) =    0.000
   Mean shear across rotor disk                     =    0.000 (m/s)/m
   Assumed rotor diameter                           =  353.400 m
   Surface roughness length                         =    0.030 m

   Nyquist frequency of turbulent wind field        =    2.000 Hz

   Number of time steps in the FFT                  =     3600
   Number of time steps output                      =     3600
   Number of points simulated                       =     7527


Mean Flow Angles:

   Vertical   =   0.0 degrees
   Horizontal =   0.0 degrees

Mean Wind Speed Profile:

   Height    Wind Speed   Horizontal Angle  Vertical Angle  U-comp (X)   V-comp (Y)   W-comp (Z)
     (m)        (m/s)         (degrees)       (degrees)       (m/s)        (m/s)        (m/s)   
   ------    ----------   ----------------  --------------  ----------   ----------   ----------
    354.4       10.00          318.19            0.00          7.45        -6.67         0.00
    345.1       10.00          319.51            0.00          7.60        -6.49         0.00
    335.8       10.00          320.98            0.00          7.77        -6.30         0.00
    326.5       10.00          322.46            0.00          7.93        -6.09         0.00
    317.2       10.00          323.94            0.00          8.08        -5.89         0.00
    307.9       10.00          325.41            0.00          8.23        -5.68         0.00
    298.6       10.00          326.89            0.00          8.38        -5.46         0.00
    289.3       10.00          328.37            0.00          8.51        -5.25         0.00
    280.0       10.00          329.84            0.00          8.65        -5.02         0.00
    270.7       10.00          331.32            0.00          8.77        -4.80         0.00
    261.4       10.00          332.79            0.00          8.89        -4.57         0.00
    252.1       10.00          334.27            0.00          9.01        -4.34         0.00
    242.8       10.00          335.75            0.00          9.12        -4.11         0.00
    233.5       10.00          337.22            0.00          9.22        -3.87         0.00
    224.2       10.00          338.70            0.00          9.32        -3.63         0.00
    214.9       10.00          340.17            0.00          9.41        -3.39         0.00
    205.6       10.00          341.65            0.00          9.49        -3.15         0.00
    196.3       10.00          343.13            0.00          9.57        -2.90         0.00
    187.0       10.00          344.60            0.00          9.64        -2.66         0.00
    177.7       10.00          346.08            0.00          9.71        -2.41         0.00
    168.4       10.00          347.56            0.00          9.77        -2.15         0.00
    159.1       10.00          349.03            0.00          9.82        -1.90         0.00
    149.8       10.00          350.51            0.00          9.86        -1.65         0.00
    140.5       10.00          351.98            0.00          9.90        -1.39         0.00
    131.2       10.00          353.46            0.00          9.93        -1.14         0.00
    121.9       10.00          354.94            0.00          9.96        -0.88         0.00
    112.6       10.00          356.41            0.00          9.98        -0.63         0.00
    103.3       10.00          357.89            0.00          9.99        -0.37         0.00
     94.0       10.00          359.37            0.00         10.00        -0.11         0.00
     84.7       10.00          360.84            0.00         10.00         0.15         0.00
     75.4       10.00          362.32            0.00          9.99         0.40         0.00
     66.1       10.00            3.79            0.00          9.98         0.66         0.00
     56.8       10.00            5.27            0.00          9.96         0.92         0.00
     47.5       10.00            6.75            0.00          9.93         1.17         0.00
     38.2       10.00            8.22            0.00          9.90         1.43         0.00
     28.9       10.00            9.70            0.00          9.86         1.68         0.00
     19.6       10.00           11.17            0.00          9.81         1.94         0.00
     10.3       10.00           12.65            0.00          9.76         2.19         0.00
      1.0       10.00           14.13            0.00          9.70         2.44         0.00


Harvested Random Seeds after Generation of the Random Numbers:

    377667225 K 1
            0 K 2


Hub-Height Simulated Turbulence Statistical Summary:

   Type of Wind        Min (m/s)   Mean (m/s)    Max (m/s)  Sigma (m/s)       TI (%)
   ----------------    ---------   ----------    ---------  -----------       ------
   Longitudinal (u)         8.08        10.00        11.93        0.625        6.249
   Lateral (v)             -1.60         0.00         1.38        0.494        4.943
   Vertical (w)            -1.01         0.00         0.94        0.282        2.816
   U component              7.77         9.71        11.65        0.624        6.432
   V component             -4.03        -2.41        -1.02        0.495        5.100
   W component             -1.01         0.00         0.94        0.282        2.901
   Horizontal (U&V)         8.08        10.01        11.94        0.626        6.250
   Total                    8.08        10.02        11.94        0.626        6.248

                       Min Reynolds     Mean Reynolds    Max Reynolds    Correlation
   Product             Stress (m/s)^2   Stress (m/s)^2   Stress (m/s)^2  Coefficient
   ----------------    --------------   --------------   --------------  -----------
   u'w'                     -1.011             0.002             0.996         0.013
   u'v'                     -1.360             0.016             1.410         0.053
   v'w'                     -0.952            -0.002             0.594        -0.013


   Friction Velocity (Ustar)  =      0.047 m/s
   Maximum Instantaneous TKE  =      1.967 (m/s)^2
   Maximum Instantaneous CTKE =      0.779 (m/s)^2


Grid Point Variance Summary:

   Y-coord -892.80 -883.50 -874.20 -864.90 -855.60 -846.30 -837.00 -827.70 -818.40 -809.10 -799.80 -790.50 -781.20 -771.90 -762.60 -753.30 -744.00 -734.70 -725.40 -716.10 -706.80 -697.50 -688.20 -678.90 -669.60 -660.30 -651.00 -641.70 -632.40 -623.10 -613.80 -604.50 -595.20 -585.90 -576.60 -567.30 -558.00 -548.70 -539.40 -530.10 -520.80 -511.50 -502.20 -492.90 -483.60 -474.30 -465.00 -455.70 -446.40 -437.10 -427.80 -418.50 -409.20 -399.90 -390.60 -381.30 -372.00 -362.70 -353.40 -344.10 -334.80 -325.50 -316.20 -306.90 -297.60 -288.30 -279.00 -269.70 -260.40 -251.10 -241.80 -232.50 -223.20 -213.90 -204.60 -195.30 -186.00 -176.70 -167.40 -158.10 -148.80 -139.50 -130.20 -120.90 -111.60 -102.30  -93.00  -83.70  -74.40  -65.10  -55.80  -46.50  -37.20  -27.90  -18.60   -9.30    0.00    9.30   18.60   27.90   37.20   46.50   55.80   65.10   74.40   83.70   93.00  102.30  111.60  120.90  130.20  139.50  148.80  158.10  167.40  176.70  186.00  195.30  204.60  213.90  223.20  232.50  241.80  251.10  260.40  269.70  279.00  288.30  297.60  306.90  316.20  325.50  334.80  344.10  353.40  362.70  372.00  381.30  390.60  399.90  409.20  418.50  427.80  437.10  446.40  455.70  465.00  474.30  483.60  492.90  502.20  511.50  520.80  530.10  539.40  548.70  558.00  567.30  576.60  585.90  595.20  604.50  613.80  623.10  632.40  641.70  651.00  660.30  669.60  678.90  688.20  697.50  706.80  716.10  725.40  734.70  744.00  753.30  762.60  771.90  781.20  790.50  799.80  809.10  818.40  827.70  837.00  846.30  855.60  864.90  874.20  883.50  892.80

   Height   Standard deviation at grid points for the u component:
   354.40    0.583   0.524   0.579   0.560   0.605   0.652   0.615   0.636   0.619   0.623   0.599   0.584   0.528   0.561   0.553   0.578   0.511   0.530   0.497   0.493   0.476   0.481   0.491   0.494   0.505   0.515   0.524   0.510   0.528   0.575   0.580   0.555   0.546   0.565   0.593   0.582   0.533   0.563   0.532   0.485   0.464   0.496   0.509   0.495   0.504   0.568   0.565   0.623   0.603   0.636   0.649   0.658   0.671   0.679   0.675   0.699   0.691   0.618   0.614   0.596   0.598   0.574   0.584   0.615   0.615   0.661   0.633   0.658   0.665   0.662   0.629   0.590   0.611   0.618   0.612   0.581   0.604   0.633   0.663   0.672   0.618   0.575   0.579   0.580   0.585   0.599   0.588   0.629   0.630   0.675   0.614   0.609   0.620   0.585   0.582   0.581   0.535   0.546   0.572   0.610   0.620   0.627   0.637   0.617   0.621   0.573   0.572   0.557   0.580   0.599   0.602   0.593   0.559   0.569   0.587   0.600   0.585   0.574   0.549   0.563   0.529   0.527   0.530   0.506   0.515   0.549   0.541   0.532   0.549   0.543   0.519   0.482   0.504   0.521   0.506   0.546   0.540   0.609   0.639   0.578   0.583   0.574   0.597   0.583   0.589   0.555   0.547   0.625   0.613   0.621   0.588   0.604   0.613   0.576   0.521   0.535   0.500   0.460   0.485   0.504   0.502   0.515   0.535   0.544   0.548   0.559   0.598   0.554   0.546   0.549   0.539   0.534   0.514   0.489   0.521   0.503   0.474   0.487   0.488   0.519   0.580   0.628   0.582   0.585   0.595   0.597   0.591   0.636   0.667   0.629   0.638   0.614   0.578
   345.10    0.627   0.590   0.564   0.614   0.647   0.621   0.611   0.629   0.625   0.593   0.563   0.572   0.545   0.546   0.532   0.585   0.536   0.497   0.483   0.529   0.501   0.496   0.458   0.492   0.499   0.539   0.539   0.518   0.516   0.523   0.542   0.558   0.589   0.554   0.588   0.578   0.544   0.509   0.499   0.478   0.478   0.490   0.511   0.570   0.575   0.597   0.618   0.619   0.632   0.658   0.580   0.633   0.677   0.654   0.659   0.655   0.676   0.601   0.595   0.619   0.602   0.630   0.619   0.595   0.627   0.653   0.660   0.650   0.679   0.665   0.657   0.630   0.615   0.631   0.654   0.658   0.650   0.651   0.673   0.687   0.581   0.589   0.612   0.639   0.632   0.650   0.638   0.628   0.661   0.653   0.646   0.642   0.624   0.596   0.576   0.579   0.599   0.595   0.601   0.625   0.660   0.639   0.614   0.630   0.640   0.587   0.582   0.559   0.581   0.616   0.613   0.593   0.554   0.594   0.596   0.601   0.587   0.592   0.562   0.560   0.539   0.526   0.533   0.496   0.522   0.525   0.567   0.529   0.563   0.543   0.541   0.527   0.562   0.589   0.547   0.548   0.597   0.585   0.557   0.576   0.576   0.592   0.577   0.562   0.588   0.580   0.564   0.622   0.635   0.612   0.586   0.582   0.628   0.577   0.558   0.537   0.496   0.470   0.486   0.517   0.512   0.562   0.562   0.552   0.551   0.538   0.585   0.552   0.562   0.563   0.527   0.515   0.519   0.510   0.489   0.494   0.488   0.458   0.490   0.548   0.593   0.632   0.629   0.623   0.614   0.568   0.644   0.638   0.689   0.620   0.624   0.639   0.611
   335.80    0.588   0.593   0.537   0.589   0.631   0.618   0.625   0.622   0.611   0.539   0.583   0.558   0.568   0.581   0.562   0.584   0.569   0.508   0.471   0.488   0.495   0.502   0.469   0.470   0.521   0.521   0.553   0.482   0.499   0.493   0.526   0.547   0.562   0.557   0.570   0.561   0.532   0.520   0.511   0.487   0.455   0.515   0.509   0.557   0.604   0.622   0.627   0.666   0.631   0.632   0.618   0.588   0.643   0.637   0.624   0.647   0.640   0.594   0.582   0.606   0.589   0.618   0.600   0.576   0.639   0.648   0.652   0.656   0.659   0.643   0.632   0.609   0.648   0.673   0.658   0.669   0.673   0.671   0.691   0.674   0.614   0.622   0.609   0.604   0.657   0.691   0.692   0.694   0.726   0.695   0.611   0.620   0.613   0.630   0.604   0.604   0.620   0.642   0.617   0.645   0.616   0.606   0.624   0.641   0.643   0.620   0.605   0.600   0.564   0.608   0.595   0.623   0.578   0.553   0.580   0.608   0.597   0.600   0.582   0.571   0.597   0.558   0.580   0.546   0.563   0.571   0.582   0.574   0.585   0.538   0.536   0.549   0.567   0.532   0.570   0.605   0.576   0.602   0.596   0.575   0.561   0.556   0.549   0.545   0.591   0.569   0.595   0.594   0.602   0.600   0.605   0.584   0.620   0.587   0.565   0.537   0.497   0.476   0.513   0.537   0.557   0.557   0.559   0.547   0.549   0.557   0.556   0.566   0.578   0.616   0.562   0.572   0.512   0.535   0.535   0.467   0.482   0.464   0.524   0.520   0.605   0.626   0.640   0.657   0.633   0.649   0.671   0.697   0.684   0.618   0.586   0.626   0.599
   326.50    0.574   0.585   0.600   0.588   0.606   0.629   0.595   0.630   0.605   0.596   0.594   0.567   0.551   0.589   0.606   0.590   0.551   0.540   0.496   0.467   0.475   0.498   0.462   0.475   0.515   0.507   0.503   0.484   0.485   0.530   0.544   0.524   0.543   0.560   0.539   0.540   0.556   0.521   0.531   0.459   0.480   0.465   0.523   0.573   0.616   0.635   0.654   0.618   0.627   0.624   0.649   0.627   0.636   0.684   0.624   0.622   0.600   0.608   0.611   0.579   0.610   0.616   0.627   0.595   0.659   0.648   0.664   0.632   0.625   0.615   0.619   0.631   0.671   0.660   0.644   0.629   0.680   0.700   0.689   0.643   0.642   0.649   0.645   0.650   0.680   0.696   0.689   0.725   0.720   0.693   0.688   0.635   0.636   0.583   0.607   0.582   0.594   0.642   0.645   0.611   0.650   0.576   0.599   0.637   0.648   0.607   0.599   0.581   0.598   0.584   0.579   0.588   0.605   0.592   0.597   0.611   0.614   0.645   0.614   0.614   0.612   0.621   0.615   0.578   0.588   0.575   0.568   0.576   0.601   0.583   0.567   0.577   0.586   0.565   0.579   0.607   0.624   0.622   0.585   0.586   0.550   0.525   0.551   0.563   0.579   0.576   0.556   0.545   0.596   0.591   0.572   0.596   0.589   0.548   0.577   0.536   0.534   0.513   0.517   0.550   0.554   0.582   0.555   0.496   0.517   0.509   0.518   0.540   0.579   0.560   0.542   0.533   0.563   0.563   0.537   0.496   0.492   0.501   0.526   0.567   0.622   0.625   0.661   0.663   0.646   0.661   0.681   0.680   0.661   0.634   0.664   0.655   0.608
   317.20    0.586   0.579   0.558   0.540   0.554   0.595   0.585   0.576   0.591   0.616   0.621   0.561   0.556   0.604   0.572   0.569   0.564   0.563   0.516   0.477   0.478   0.512   0.457   0.467   0.513   0.553   0.525   0.516   0.466   0.505   0.501   0.535   0.543   0.531   0.523   0.556   0.562   0.553   0.483   0.461   0.502   0.495   0.511   0.553   0.575   0.617   0.653   0.649   0.648   0.642   0.690   0.654   0.649   0.659   0.613   0.641   0.606   0.589   0.631   0.617   0.602   0.586   0.613   0.620   0.626   0.665   0.657   0.644   0.647   0.652   0.593   0.636   0.671   0.671   0.654   0.665   0.664   0.679   0.631   0.608   0.628   0.642   0.637   0.645   0.659   0.661   0.675   0.714   0.727   0.682   0.644   0.635   0.633   0.588   0.572   0.565   0.611   0.630   0.627   0.632   0.654   0.612   0.601   0.614   0.622   0.613   0.587   0.569   0.592   0.612   0.573   0.566   0.571   0.603   0.629   0.603   0.623   0.600   0.590   0.606   0.606   0.601   0.596   0.582   0.600   0.606   0.614   0.627   0.620   0.618   0.625   0.609   0.590   0.625   0.609   0.643   0.668   0.636   0.613   0.597   0.555   0.541   0.542   0.522   0.509   0.519   0.567   0.568   0.564   0.592   0.578   0.563   0.559   0.519   0.541   0.545   0.527   0.515   0.522   0.546   0.551   0.544   0.548   0.531   0.496   0.514   0.554   0.544   0.533   0.552   0.525   0.527   0.543   0.599   0.536   0.516   0.518   0.535   0.540   0.601   0.611   0.650   0.646   0.667   0.649   0.616   0.651   0.678   0.684   0.620   0.662   0.628   0.607
   307.90    0.559   0.569   0.595   0.572   0.525   0.550   0.575   0.591   0.611   0.630   0.613   0.617   0.560   0.608   0.612   0.561   0.589   0.567   0.519   0.496   0.492   0.478   0.479   0.500   0.505   0.523   0.501   0.498   0.462   0.470   0.510   0.507   0.520   0.547   0.521   0.502   0.545   0.554   0.530   0.481   0.508   0.504   0.494   0.526   0.561   0.597   0.571   0.656   0.655   0.683   0.637   0.637   0.636   0.671   0.616   0.636   0.581   0.620   0.575   0.537   0.606   0.620   0.598   0.639   0.619   0.639   0.653   0.635   0.605   0.610   0.603   0.617   0.618   0.628   0.651   0.635   0.609   0.647   0.643   0.611   0.606   0.658   0.662   0.690   0.662   0.650   0.640   0.680   0.675   0.696   0.665   0.666   0.612   0.594   0.557   0.605   0.613   0.614   0.585   0.566   0.580   0.569   0.549   0.570   0.639   0.610   0.583   0.536   0.603   0.618   0.568   0.540   0.565   0.606   0.592   0.612   0.619   0.612   0.598   0.608   0.599   0.604   0.587   0.589   0.606   0.638   0.637   0.646   0.626   0.638   0.652   0.701   0.680   0.666   0.656   0.626   0.650   0.667   0.658   0.580   0.541   0.557   0.522   0.491   0.524   0.536   0.567   0.563   0.561   0.552   0.560   0.558   0.553   0.526   0.545   0.545   0.527   0.535   0.537   0.529   0.573   0.561   0.536   0.537   0.506   0.527   0.535   0.533   0.533   0.532   0.518   0.513   0.547   0.563   0.551   0.550   0.546   0.529   0.574   0.610   0.610   0.661   0.670   0.652   0.610   0.610   0.625   0.676   0.685   0.604   0.642   0.595   0.599
   298.60    0.578   0.591   0.559   0.536   0.551   0.609   0.622   0.578   0.593   0.628   0.636   0.603   0.619   0.583   0.621   0.605   0.592   0.562   0.561   0.490   0.490   0.480   0.470   0.492   0.498   0.478   0.498   0.483   0.448   0.495   0.512   0.481   0.537   0.523   0.516   0.549   0.555   0.558   0.541   0.519   0.507   0.514   0.508   0.518   0.531   0.558   0.601   0.641   0.644   0.667   0.624   0.636   0.601   0.624   0.632   0.622   0.631   0.605   0.599   0.588   0.618   0.597   0.581   0.580   0.627   0.617   0.593   0.624   0.601   0.623   0.636   0.622   0.596   0.600   0.609   0.617   0.627   0.641   0.671   0.630   0.624   0.641   0.663   0.675   0.624   0.621   0.628   0.677   0.671   0.651   0.661   0.637   0.657   0.612   0.591   0.583   0.599   0.626   0.556   0.545   0.557   0.549   0.581   0.581   0.560   0.565   0.560   0.594   0.584   0.571   0.569   0.564   0.590   0.596   0.591   0.601   0.628   0.593   0.584   0.578   0.523   0.555   0.594   0.618   0.620   0.633   0.653   0.657   0.679   0.713   0.694   0.733   0.724   0.687   0.662   0.652   0.688   0.675   0.669   0.598   0.533   0.524   0.495   0.495   0.469   0.516   0.561   0.569   0.551   0.594   0.565   0.567   0.554   0.520   0.516   0.507   0.508   0.521   0.560   0.556   0.589   0.546   0.577   0.587   0.533   0.544   0.556   0.566   0.561   0.539   0.535   0.562   0.523   0.558   0.537   0.516   0.575   0.512   0.566   0.598   0.614   0.624   0.607   0.617   0.605   0.621   0.625   0.694   0.667   0.647   0.612   0.597   0.591
   289.30    0.535   0.574   0.609   0.606   0.570   0.587   0.596   0.578   0.579   0.606   0.595   0.581   0.615   0.576   0.626   0.608   0.601   0.579   0.562   0.539   0.494   0.483   0.495   0.464   0.491   0.518   0.521   0.518   0.454   0.483   0.510   0.464   0.512   0.496   0.534   0.545   0.557   0.557   0.555   0.521   0.526   0.488   0.550   0.584   0.559   0.542   0.564   0.601   0.584   0.650   0.682   0.669   0.684   0.620   0.622   0.630   0.646   0.606   0.609   0.568   0.578   0.571   0.560   0.545   0.615   0.647   0.596   0.631   0.624   0.614   0.571   0.606   0.565   0.557   0.540   0.575   0.632   0.613   0.665   0.622   0.654   0.585   0.620   0.664   0.656   0.621   0.644   0.639   0.666   0.666   0.636   0.664   0.650   0.637   0.599   0.602   0.590   0.610   0.602   0.561   0.611   0.641   0.600   0.572   0.589   0.555   0.558   0.590   0.589   0.570   0.571   0.579   0.595   0.586   0.576   0.584   0.560   0.605   0.584   0.531   0.531   0.549   0.557   0.609   0.641   0.638   0.645   0.693   0.693   0.699   0.753   0.768   0.736   0.692   0.653   0.683   0.686   0.697   0.657   0.609   0.514   0.476   0.479   0.465   0.459   0.572   0.558   0.559   0.551   0.566   0.568   0.548   0.527   0.523   0.511   0.512   0.519   0.546   0.568   0.539   0.541   0.542   0.542   0.537   0.546   0.560   0.525   0.569   0.534   0.541   0.506   0.550   0.556   0.540   0.565   0.529   0.551   0.515   0.506   0.551   0.584   0.571   0.624   0.595   0.570   0.581   0.576   0.635   0.662   0.652   0.619   0.578   0.616
   280.00    0.586   0.586   0.620   0.627   0.611   0.609   0.562   0.559   0.542   0.549   0.593   0.601   0.567   0.573   0.607   0.641   0.624   0.559   0.531   0.533   0.514   0.497   0.489   0.472   0.505   0.490   0.499   0.525   0.476   0.503   0.504   0.485   0.470   0.519   0.498   0.515   0.502   0.526   0.490   0.498   0.499   0.520   0.542   0.562   0.582   0.530   0.560   0.564   0.543   0.609   0.645   0.701   0.653   0.638   0.622   0.600   0.585   0.623   0.590   0.574   0.572   0.556   0.561   0.606   0.642   0.646   0.648   0.625   0.645   0.639   0.604   0.610   0.545   0.516   0.539   0.586   0.626   0.598   0.589   0.589   0.591   0.571   0.592   0.606   0.598   0.638   0.658   0.645   0.643   0.631   0.644   0.652   0.603   0.601   0.608   0.595   0.547   0.571   0.562   0.541   0.581   0.594   0.592   0.594   0.595   0.564   0.524   0.566   0.576   0.576   0.582   0.580   0.560   0.602   0.621   0.565   0.574   0.564   0.546   0.546   0.540   0.564   0.563   0.609   0.610   0.648   0.621   0.689   0.709   0.714   0.743   0.720   0.740   0.696   0.672   0.684   0.684   0.659   0.625   0.592   0.563   0.495   0.479   0.497   0.537   0.550   0.568   0.548   0.525   0.569   0.561   0.588   0.572   0.571   0.506   0.481   0.533   0.559   0.545   0.529   0.515   0.551   0.529   0.521   0.555   0.562   0.551   0.571   0.529   0.502   0.518   0.523   0.522   0.541   0.561   0.573   0.538   0.557   0.537   0.566   0.579   0.613   0.630   0.624   0.593   0.601   0.607   0.630   0.692   0.652   0.595   0.598   0.605
   270.70    0.549   0.573   0.590   0.607   0.608   0.591   0.562   0.587   0.528   0.523   0.579   0.585   0.573   0.602   0.615   0.622   0.635   0.597   0.558   0.494   0.498   0.478   0.481   0.468   0.477   0.488   0.486   0.481   0.479   0.524   0.530   0.511   0.509   0.546   0.544   0.528   0.496   0.503   0.510   0.515   0.517   0.525   0.560   0.591   0.591   0.535   0.536   0.565   0.570   0.576   0.670   0.673   0.635   0.620   0.605   0.628   0.603   0.643   0.597   0.586   0.598   0.608   0.582   0.609   0.644   0.653   0.660   0.645   0.624   0.611   0.618   0.601   0.567   0.560   0.569   0.584   0.617   0.608   0.584   0.603   0.576   0.568   0.574   0.552   0.585   0.576   0.598   0.604   0.627   0.636   0.638   0.635   0.633   0.559   0.540   0.547   0.532   0.570   0.565   0.574   0.555   0.538   0.552   0.596   0.590   0.582   0.591   0.558   0.575   0.606   0.603   0.568   0.548   0.590   0.609   0.557   0.531   0.548   0.551   0.565   0.567   0.577   0.588   0.613   0.607   0.629   0.622   0.642   0.648   0.677   0.692   0.697   0.696   0.718   0.707   0.704   0.725   0.657   0.615   0.578   0.577   0.546   0.505   0.504   0.501   0.514   0.510   0.489   0.536   0.588   0.541   0.539   0.553   0.528   0.519   0.506   0.503   0.501   0.516   0.519   0.525   0.557   0.562   0.561   0.582   0.593   0.578   0.563   0.519   0.509   0.479   0.501   0.510   0.549   0.560   0.572   0.545   0.546   0.578   0.604   0.592   0.600   0.601   0.655   0.625   0.646   0.629   0.635   0.668   0.670   0.621   0.606   0.565
   261.40    0.534   0.547   0.561   0.587   0.586   0.571   0.567   0.556   0.532   0.542   0.590   0.573   0.591   0.602   0.638   0.622   0.611   0.604   0.545   0.511   0.509   0.491   0.531   0.497   0.467   0.482   0.496   0.505   0.496   0.510   0.530   0.542   0.504   0.552   0.548   0.536   0.504   0.481   0.514   0.494   0.499   0.534   0.571   0.597   0.588   0.562   0.560   0.584   0.602   0.579   0.629   0.644   0.600   0.616   0.616   0.652   0.658   0.633   0.606   0.634   0.645   0.594   0.625   0.618   0.649   0.633   0.629   0.608   0.618   0.658   0.653   0.594   0.537   0.542   0.581   0.591   0.598   0.590   0.571   0.555   0.575   0.567   0.579   0.583   0.595   0.540   0.567   0.590   0.646   0.673   0.637   0.630   0.620   0.566   0.500   0.540   0.517   0.540   0.576   0.580   0.583   0.557   0.610   0.634   0.600   0.564   0.597   0.519   0.576   0.615   0.594   0.587   0.581   0.592   0.614   0.563   0.528   0.556   0.571   0.581   0.586   0.598   0.621   0.624   0.624   0.650   0.666   0.649   0.639   0.671   0.672   0.679   0.665   0.648   0.674   0.691   0.688   0.682   0.602   0.571   0.578   0.535   0.528   0.506   0.504   0.507   0.476   0.486   0.525   0.523   0.515   0.549   0.507   0.527   0.497   0.492   0.497   0.490   0.500   0.519   0.532   0.560   0.572   0.562   0.557   0.555   0.539   0.527   0.509   0.509   0.471   0.482   0.501   0.552   0.546   0.546   0.578   0.545   0.569   0.595   0.575   0.568   0.596   0.619   0.627   0.598   0.605   0.618   0.628   0.636   0.650   0.605   0.565
   252.10    0.516   0.555   0.604   0.590   0.582   0.566   0.583   0.569   0.547   0.519   0.553   0.582   0.586   0.630   0.593   0.609   0.593   0.603   0.549   0.527   0.506   0.511   0.548   0.489   0.520   0.532   0.519   0.523   0.507   0.536   0.541   0.544   0.546   0.548   0.528   0.558   0.552   0.488   0.480   0.467   0.483   0.515   0.575   0.576   0.585   0.562   0.586   0.598   0.569   0.592   0.606   0.640   0.615   0.620   0.609   0.620   0.656   0.611   0.649   0.647   0.641   0.602   0.601   0.630   0.662   0.656   0.631   0.633   0.628   0.664   0.665   0.588   0.547   0.539   0.575   0.599   0.547   0.536   0.547   0.561   0.565   0.601   0.613   0.587   0.598   0.573   0.606   0.582   0.607   0.603   0.587   0.585   0.575   0.565   0.535   0.523   0.582   0.549   0.574   0.570   0.583   0.558   0.608   0.626   0.598   0.575   0.576   0.531   0.601   0.610   0.614   0.575   0.572   0.596   0.620   0.562   0.538   0.564   0.545   0.567   0.577   0.607   0.622   0.612   0.613   0.622   0.604   0.602   0.634   0.645   0.643   0.647   0.629   0.621   0.595   0.646   0.634   0.634   0.639   0.577   0.556   0.558   0.520   0.512   0.481   0.540   0.531   0.506   0.499   0.491   0.502   0.505   0.475   0.482   0.478   0.468   0.477   0.477   0.483   0.516   0.551   0.594   0.574   0.599   0.577   0.543   0.501   0.526   0.507   0.506   0.521   0.513   0.483   0.540   0.550   0.551   0.585   0.532   0.548   0.566   0.561   0.569   0.562   0.577   0.581   0.585   0.585   0.571   0.618   0.649   0.651   0.619   0.585
   242.80    0.564   0.578   0.617   0.580   0.582   0.614   0.585   0.537   0.536   0.555   0.556   0.612   0.617   0.612   0.587   0.560   0.522   0.529   0.566   0.546   0.524   0.508   0.535   0.526   0.551   0.521   0.566   0.520   0.535   0.566   0.549   0.534   0.545   0.541   0.551   0.575   0.584   0.528   0.455   0.469   0.483   0.467   0.548   0.592   0.614   0.588   0.621   0.595   0.569   0.602   0.604   0.595   0.592   0.603   0.647   0.606   0.581   0.606   0.654   0.653   0.615   0.606   0.615   0.612   0.659   0.681   0.630   0.626   0.643   0.687   0.668   0.632   0.581   0.570   0.586   0.580   0.543   0.525   0.561   0.517   0.552   0.622   0.631   0.580   0.587   0.569   0.578   0.595   0.634   0.632   0.607   0.564   0.581   0.553   0.586   0.569   0.568   0.569   0.556   0.579   0.625   0.573   0.591   0.597   0.599   0.554   0.591   0.577   0.619   0.614   0.577   0.614   0.601   0.601   0.597   0.565   0.565   0.559   0.559   0.566   0.574   0.563   0.590   0.568   0.611   0.608   0.629   0.590   0.588   0.604   0.645   0.623   0.611   0.614   0.622   0.617   0.647   0.614   0.625   0.615   0.549   0.535   0.491   0.516   0.513   0.541   0.502   0.506   0.493   0.470   0.477   0.460   0.465   0.471   0.464   0.448   0.447   0.488   0.466   0.483   0.507   0.537   0.568   0.577   0.566   0.521   0.530   0.549   0.511   0.521   0.532   0.541   0.533   0.525   0.549   0.531   0.540   0.550   0.601   0.596   0.579   0.596   0.583   0.585   0.576   0.569   0.584   0.568   0.594   0.633   0.630   0.566   0.554
   233.50    0.611   0.600   0.625   0.564   0.551   0.542   0.551   0.569   0.524   0.548   0.577   0.596   0.581   0.549   0.543   0.501   0.529   0.473   0.511   0.467   0.470   0.500   0.506   0.493   0.521   0.570   0.540   0.533   0.600   0.588   0.581   0.546   0.543   0.550   0.547   0.574   0.570   0.548   0.520   0.514   0.507   0.504   0.542   0.564   0.550   0.617   0.598   0.586   0.570   0.586   0.563   0.593   0.608   0.627   0.657   0.626   0.606   0.604   0.653   0.657   0.664   0.623   0.612   0.612   0.638   0.655   0.635   0.634   0.638   0.682   0.652   0.632   0.608   0.604   0.559   0.540   0.530   0.528   0.532   0.559   0.526   0.580   0.587   0.599   0.601   0.629   0.601   0.578   0.621   0.638   0.607   0.586   0.561   0.610   0.579   0.561   0.594   0.557   0.589   0.597   0.618   0.585   0.592   0.565   0.596   0.603   0.613   0.624   0.630   0.635   0.603   0.592   0.656   0.622   0.579   0.542   0.559   0.558   0.572   0.575   0.606   0.598   0.547   0.532   0.575   0.592   0.593   0.576   0.563   0.600   0.623   0.572   0.581   0.615   0.620   0.601   0.630   0.671   0.652   0.610   0.583   0.557   0.546   0.575   0.545   0.512   0.518   0.464   0.462   0.486   0.463   0.470   0.454   0.437   0.447   0.450   0.394   0.448   0.472   0.489   0.482   0.530   0.555   0.555   0.537   0.507   0.497   0.557   0.543   0.564   0.562   0.537   0.541   0.548   0.531   0.545   0.549   0.527   0.594   0.582   0.565   0.621   0.612   0.599   0.647   0.630   0.595   0.545   0.556   0.593   0.619   0.603   0.542
   224.20    0.605   0.608   0.603   0.525   0.532   0.506   0.554   0.514   0.548   0.554   0.590   0.586   0.619   0.585   0.547   0.523   0.520   0.515   0.514   0.491   0.480   0.491   0.517   0.515   0.499   0.511   0.529   0.582   0.640   0.619   0.559   0.564   0.532   0.516   0.521   0.559   0.535   0.550   0.577   0.582   0.555   0.560   0.574   0.566   0.526   0.583   0.565   0.582   0.591   0.561   0.585   0.585   0.600   0.655   0.634   0.646   0.603   0.594   0.630   0.650   0.659   0.644   0.659   0.665   0.642   0.617   0.622   0.614   0.634   0.638   0.617   0.656   0.611   0.560   0.504   0.527   0.535   0.549   0.565   0.543   0.528   0.566   0.580   0.605   0.629   0.638   0.604   0.599   0.587   0.589   0.557   0.579   0.606   0.640   0.608   0.570   0.597   0.567   0.532   0.602   0.587   0.607   0.576   0.578   0.601   0.620   0.627   0.645   0.622   0.656   0.622   0.601   0.626   0.574   0.561   0.592   0.562   0.548   0.578   0.610   0.594   0.556   0.565   0.572   0.576   0.604   0.588   0.541   0.563   0.575   0.595   0.594   0.579   0.549   0.593   0.576   0.622   0.675   0.644   0.612   0.580   0.572   0.565   0.566   0.546   0.522   0.493   0.484   0.467   0.487   0.480   0.457   0.464   0.445   0.463   0.426   0.472   0.455   0.471   0.453   0.463   0.535   0.560   0.544   0.524   0.508   0.495   0.542   0.543   0.532   0.521   0.540   0.524   0.545   0.544   0.511   0.530   0.563   0.610   0.632   0.627   0.634   0.624   0.641   0.617   0.630   0.617   0.557   0.559   0.564   0.584   0.550   0.553
   214.90    0.613   0.585   0.581   0.526   0.537   0.524   0.514   0.524   0.557   0.571   0.601   0.609   0.630   0.587   0.564   0.552   0.568   0.574   0.566   0.521   0.509   0.496   0.513   0.536   0.515   0.540   0.568   0.594   0.636   0.632   0.604   0.573   0.557   0.517   0.501   0.537   0.551   0.566   0.612   0.595   0.575   0.571   0.559   0.520   0.520   0.560   0.585   0.592   0.600   0.615   0.607   0.627   0.651   0.623   0.624   0.644   0.585   0.584   0.604   0.628   0.645   0.647   0.646   0.613   0.612   0.568   0.564   0.559   0.623   0.598   0.579   0.605   0.547   0.521   0.535   0.502   0.538   0.521   0.543   0.542   0.507   0.544   0.579   0.617   0.619   0.614   0.576   0.597   0.552   0.554   0.584   0.585   0.617   0.634   0.616   0.600   0.570   0.564   0.608   0.634   0.639   0.636   0.617   0.642   0.623   0.653   0.652   0.660   0.621   0.622   0.597   0.591   0.592   0.561   0.546   0.597   0.579   0.579   0.563   0.560   0.581   0.584   0.599   0.586   0.537   0.573   0.576   0.559   0.607   0.589   0.589   0.589   0.573   0.533   0.587   0.601   0.645   0.661   0.621   0.603   0.590   0.609   0.571   0.576   0.582   0.510   0.506   0.475   0.503   0.464   0.477   0.480   0.467   0.448   0.453   0.457   0.452   0.498   0.481   0.519   0.502   0.537   0.550   0.544   0.516   0.503   0.492   0.535   0.510   0.523   0.566   0.554   0.581   0.580   0.547   0.534   0.494   0.513   0.584   0.623   0.651   0.653   0.645   0.619   0.645   0.672   0.654   0.608   0.610   0.596   0.551   0.562   0.540
   205.60    0.608   0.550   0.558   0.539   0.495   0.519   0.538   0.533   0.544   0.537   0.548   0.601   0.627   0.583   0.571   0.563   0.613   0.607   0.624   0.567   0.536   0.536   0.569   0.536   0.527   0.516   0.553   0.592   0.615   0.619   0.569   0.580   0.560   0.541   0.498   0.541   0.555   0.580   0.623   0.629   0.595   0.538   0.522   0.526   0.548   0.602   0.621   0.628   0.587   0.596   0.596   0.589   0.622   0.658   0.657   0.603   0.594   0.583   0.576   0.617   0.649   0.628   0.632   0.578   0.551   0.540   0.531   0.559   0.572   0.539   0.564   0.580   0.527   0.495   0.499   0.484   0.498   0.525   0.550   0.541   0.564   0.598   0.582   0.582   0.581   0.556   0.553   0.553   0.547   0.568   0.570   0.596   0.614   0.628   0.589   0.605   0.572   0.583   0.621   0.630   0.638   0.670   0.638   0.613   0.633   0.668   0.628   0.636   0.603   0.579   0.591   0.605   0.550   0.549   0.602   0.595   0.618   0.589   0.566   0.569   0.605   0.612   0.594   0.549   0.530   0.554   0.569   0.583   0.606   0.587   0.581   0.603   0.576   0.599   0.568   0.615   0.646   0.632   0.598   0.623   0.633   0.592   0.594   0.618   0.545   0.520   0.492   0.472   0.457   0.480   0.472   0.442   0.432   0.429   0.399   0.438   0.473   0.470   0.478   0.511   0.547   0.551   0.530   0.557   0.521   0.525   0.510   0.512   0.525   0.544   0.588   0.575   0.610   0.608   0.607   0.555   0.531   0.539   0.569   0.619   0.609   0.626   0.638   0.621   0.616   0.668   0.665   0.638   0.633   0.602   0.543   0.597   0.560
   196.30    0.586   0.532   0.519   0.548   0.547   0.553   0.548   0.499   0.528   0.538   0.549   0.596   0.609   0.597   0.625   0.613   0.619   0.607   0.602   0.587   0.568   0.560   0.556   0.535   0.524   0.522   0.537   0.548   0.562   0.567   0.610   0.599   0.573   0.537   0.535   0.536   0.551   0.607   0.626   0.597   0.550   0.542   0.570   0.540   0.584   0.566   0.638   0.607   0.602   0.596   0.567   0.609   0.629   0.687   0.636   0.617   0.570   0.572   0.573   0.585   0.594   0.560   0.553   0.569   0.536   0.548   0.534   0.517   0.559   0.544   0.561   0.587   0.553   0.503   0.489   0.507   0.518   0.590   0.635   0.563   0.512   0.556   0.570   0.588   0.587   0.580   0.533   0.521   0.555   0.579   0.600   0.596   0.548   0.605   0.549   0.610   0.592   0.568   0.608   0.615   0.592   0.651   0.657   0.608   0.638   0.646   0.653   0.587   0.589   0.559   0.612   0.602   0.578   0.565   0.573   0.560   0.601   0.597   0.585   0.587   0.556   0.611   0.587   0.546   0.559   0.580   0.604   0.577   0.586   0.618   0.634   0.614   0.567   0.591   0.562   0.618   0.642   0.600   0.628   0.645   0.650   0.637   0.561   0.578   0.560   0.580   0.525   0.482   0.423   0.453   0.465   0.479   0.446   0.432   0.413   0.431   0.467   0.495   0.473   0.501   0.525   0.532   0.532   0.557   0.545   0.553   0.541   0.525   0.524   0.553   0.577   0.567   0.540   0.585   0.564   0.571   0.544   0.546   0.602   0.602   0.604   0.615   0.604   0.618   0.619   0.638   0.644   0.665   0.634   0.601   0.574   0.572   0.573
   187.00    0.600   0.537   0.536   0.553   0.559   0.542   0.488   0.522   0.501   0.519   0.550   0.643   0.624   0.610   0.602   0.586   0.611   0.578   0.612   0.606   0.589   0.532   0.519   0.548   0.506   0.578   0.549   0.516   0.526   0.597   0.618   0.599   0.614   0.601   0.586   0.590   0.637   0.619   0.590   0.555   0.576   0.594   0.564   0.557   0.551   0.582   0.595   0.587   0.551   0.554   0.549   0.580   0.657   0.637   0.621   0.590   0.581   0.539   0.548   0.524   0.536   0.574   0.538   0.513   0.530   0.505   0.507   0.555   0.552   0.608   0.568   0.565   0.531   0.527   0.557   0.575   0.589   0.606   0.659   0.576   0.580   0.576   0.585   0.628   0.573   0.534   0.543   0.570   0.581   0.566   0.600   0.596   0.582   0.594   0.582   0.579   0.581   0.597   0.598   0.586   0.608   0.564   0.572   0.603   0.617   0.648   0.602   0.570   0.571   0.617   0.620   0.601   0.581   0.550   0.554   0.598   0.602   0.606   0.571   0.587   0.569   0.614   0.630   0.590   0.562   0.570   0.635   0.611   0.630   0.612   0.637   0.627   0.566   0.591   0.569   0.599   0.627   0.595   0.638   0.655   0.639   0.641   0.610   0.616   0.590   0.546   0.559   0.483   0.470   0.454   0.509   0.500   0.469   0.460   0.449   0.451   0.460   0.476   0.502   0.502   0.497   0.534   0.521   0.560   0.550   0.549   0.520   0.539   0.529   0.531   0.555   0.567   0.555   0.563   0.596   0.566   0.587   0.544   0.579   0.560   0.580   0.559   0.578   0.604   0.613   0.596   0.605   0.628   0.602   0.571   0.547   0.552   0.520
   177.70    0.577   0.579   0.552   0.577   0.558   0.550   0.518   0.535   0.561   0.542   0.605   0.625   0.620   0.585   0.608   0.572   0.590   0.611   0.643   0.602   0.577   0.561   0.518   0.539   0.546   0.562   0.545   0.528   0.569   0.573   0.613   0.584   0.635   0.631   0.636   0.633   0.643   0.660   0.581   0.534   0.562   0.578   0.543   0.559   0.550   0.531   0.534   0.562   0.564   0.557   0.534   0.566   0.605   0.613   0.587   0.571   0.545   0.529   0.563   0.571   0.544   0.561   0.573   0.585   0.549   0.532   0.501   0.524   0.563   0.588   0.553   0.546   0.553   0.559   0.561   0.592   0.582   0.609   0.609   0.594   0.564   0.575   0.611   0.628   0.629   0.570   0.539   0.579   0.588   0.585   0.558   0.605   0.570   0.587   0.592   0.616   0.625   0.637   0.612   0.595   0.549   0.580   0.559   0.565   0.561   0.575   0.598   0.542   0.539   0.581   0.589   0.562   0.591   0.574   0.585   0.591   0.586   0.623   0.621   0.562   0.600   0.615   0.611   0.590   0.581   0.585   0.606   0.628   0.647   0.657   0.602   0.588   0.587   0.606   0.630   0.608   0.595   0.583   0.587   0.605   0.609   0.612   0.593   0.621   0.595   0.571   0.548   0.543   0.467   0.497   0.518   0.544   0.502   0.499   0.479   0.462   0.461   0.461   0.487   0.507   0.491   0.519   0.522   0.524   0.545   0.572   0.567   0.564   0.564   0.554   0.537   0.522   0.551   0.577   0.561   0.545   0.557   0.544   0.542   0.550   0.554   0.552   0.576   0.570   0.578   0.601   0.581   0.601   0.590   0.548   0.551   0.540   0.537
   168.40    0.554   0.568   0.592   0.568   0.555   0.515   0.520   0.558   0.576   0.595   0.644   0.637   0.594   0.573   0.583   0.574   0.584   0.618   0.600   0.609   0.579   0.534   0.513   0.523   0.513   0.559   0.595   0.566   0.574   0.577   0.583   0.593   0.630   0.611   0.628   0.659   0.679   0.652   0.615   0.576   0.557   0.562   0.557   0.557   0.558   0.554   0.499   0.498   0.554   0.578   0.574   0.572   0.591   0.575   0.581   0.594   0.575   0.535   0.553   0.539   0.545   0.546   0.564   0.573   0.536   0.511   0.497   0.531   0.543   0.529   0.520   0.544   0.542   0.530   0.569   0.551   0.565   0.568   0.551   0.553   0.532   0.558   0.605   0.650   0.650   0.606   0.595   0.613   0.599   0.595   0.585   0.579   0.577   0.605   0.590   0.598   0.608   0.580   0.594   0.537   0.525   0.553   0.573   0.560   0.564   0.581   0.554   0.583   0.596   0.552   0.563   0.567   0.568   0.594   0.590   0.591   0.573   0.564   0.584   0.566   0.595   0.609   0.600   0.583   0.602   0.565   0.554   0.596   0.634   0.646   0.593   0.589   0.569   0.579   0.590   0.591   0.601   0.557   0.546   0.555   0.563   0.563   0.585   0.578   0.619   0.580   0.559   0.535   0.497   0.523   0.556   0.513   0.514   0.506   0.493   0.519   0.462   0.497   0.524   0.513   0.515   0.506   0.498   0.563   0.563   0.549   0.561   0.540   0.540   0.530   0.505   0.505   0.539   0.547   0.579   0.561   0.565   0.524   0.511   0.529   0.524   0.527   0.541   0.525   0.546   0.542   0.599   0.568   0.546   0.532   0.556   0.535   0.520
   159.10    0.592   0.548   0.564   0.582   0.586   0.588   0.565   0.567   0.569   0.585   0.644   0.664   0.634   0.578   0.614   0.636   0.616   0.623   0.617   0.628   0.555   0.529   0.514   0.555   0.582   0.634   0.611   0.619   0.621   0.568   0.594   0.566   0.596   0.615   0.609   0.648   0.684   0.678   0.647   0.645   0.548   0.514   0.527   0.549   0.588   0.559   0.554   0.540   0.565   0.553   0.551   0.560   0.551   0.573   0.550   0.575   0.613   0.552   0.529   0.508   0.517   0.543   0.530   0.554   0.504   0.509   0.504   0.522   0.572   0.541   0.552   0.555   0.536   0.531   0.563   0.561   0.561   0.549   0.528   0.551   0.518   0.565   0.630   0.609   0.621   0.595   0.600   0.621   0.564   0.587   0.623   0.596   0.591   0.595   0.605   0.601   0.628   0.601   0.583   0.550   0.564   0.549   0.519   0.577   0.574   0.576   0.550   0.566   0.595   0.560   0.558   0.569   0.544   0.549   0.573   0.559   0.568   0.546   0.511   0.535   0.584   0.569   0.596   0.624   0.590   0.560   0.552   0.596   0.605   0.629   0.602   0.577   0.582   0.545   0.587   0.564   0.552   0.548   0.492   0.498   0.531   0.515   0.543   0.575   0.555   0.546   0.585   0.559   0.519   0.571   0.531   0.503   0.492   0.480   0.472   0.523   0.489   0.520   0.543   0.536   0.541   0.482   0.524   0.529   0.536   0.569   0.536   0.540   0.521   0.514   0.487   0.515   0.475   0.495   0.535   0.532   0.513   0.510   0.498   0.527   0.509   0.535   0.512   0.524   0.542   0.556   0.560   0.552   0.546   0.515   0.529   0.514   0.532
   149.80    0.597   0.559   0.555   0.583   0.574   0.591   0.581   0.568   0.555   0.566   0.597   0.632   0.590   0.604   0.636   0.665   0.648   0.639   0.613   0.616   0.577   0.527   0.509   0.511   0.569   0.600   0.608   0.618   0.587   0.533   0.600   0.602   0.630   0.592   0.668   0.704   0.652   0.661   0.668   0.625   0.619   0.573   0.534   0.575   0.564   0.613   0.588   0.561   0.565   0.558   0.590   0.567   0.531   0.532   0.586   0.607   0.565   0.578   0.534   0.534   0.515   0.506   0.531   0.493   0.513   0.534   0.555   0.572   0.591   0.555   0.578   0.586   0.568   0.567   0.592   0.598   0.577   0.590   0.547   0.530   0.516   0.541   0.558   0.588   0.619   0.583   0.603   0.635   0.608   0.612   0.621   0.628   0.597   0.573   0.571   0.586   0.576   0.619   0.590   0.605   0.573   0.560   0.563   0.600   0.600   0.598   0.571   0.578   0.590   0.587   0.600   0.598   0.552   0.570   0.570   0.603   0.564   0.562   0.531   0.555   0.573   0.592   0.604   0.580   0.605   0.590   0.581   0.620   0.588   0.600   0.598   0.545   0.542   0.525   0.549   0.528   0.511   0.523   0.487   0.497   0.507   0.502   0.533   0.513   0.545   0.537   0.551   0.556   0.533   0.568   0.534   0.486   0.482   0.486   0.505   0.528   0.551   0.555   0.565   0.515   0.511   0.488   0.459   0.520   0.502   0.523   0.544   0.520   0.513   0.528   0.489   0.492   0.484   0.473   0.484   0.502   0.510   0.524   0.493   0.502   0.503   0.524   0.517   0.506   0.534   0.510   0.524   0.544   0.532   0.531   0.506   0.514   0.490
   140.50    0.637   0.599   0.615   0.594   0.553   0.574   0.599   0.563   0.537   0.569   0.594   0.619   0.651   0.597   0.618   0.612   0.678   0.628   0.650   0.593   0.576   0.563   0.523   0.551   0.569   0.557   0.544   0.567   0.536   0.536   0.562   0.596   0.648   0.616   0.629   0.688   0.681   0.637   0.646   0.653   0.627   0.618   0.589   0.565   0.535   0.611   0.611   0.586   0.545   0.551   0.571   0.547   0.534   0.537   0.605   0.581   0.602   0.621   0.568   0.537   0.558   0.548   0.539   0.520   0.535   0.553   0.560   0.559   0.584   0.605   0.610   0.578   0.573   0.572   0.595   0.588   0.595   0.598   0.539   0.494   0.506   0.495   0.487   0.528   0.581   0.596   0.631   0.632   0.609   0.642   0.640   0.602   0.612   0.609   0.602   0.573   0.570   0.573   0.574   0.580   0.564   0.568   0.550   0.599   0.563   0.614   0.631   0.595   0.611   0.642   0.607   0.620   0.572   0.545   0.562   0.571   0.558   0.555   0.539   0.548   0.598   0.611   0.627   0.604   0.592   0.590   0.587   0.620   0.579   0.582   0.568   0.526   0.536   0.543   0.502   0.515   0.501   0.507   0.515   0.540   0.538   0.511   0.470   0.504   0.522   0.503   0.542   0.557   0.561   0.581   0.562   0.531   0.528   0.513   0.508   0.523   0.530   0.561   0.588   0.548   0.471   0.480   0.473   0.501   0.477   0.474   0.499   0.507   0.496   0.518   0.525   0.522   0.523   0.524   0.502   0.532   0.502   0.518   0.543   0.538   0.513   0.510   0.509   0.533   0.500   0.476   0.520   0.505   0.518   0.526   0.487   0.491   0.476
   131.20    0.591   0.540   0.603   0.616   0.584   0.557   0.544   0.599   0.567   0.625   0.612   0.611   0.634   0.612   0.626   0.636   0.645   0.615   0.613   0.613   0.590   0.610   0.544   0.536   0.587   0.553   0.566   0.574   0.535   0.508   0.529   0.590   0.624   0.643   0.645   0.672   0.673   0.672   0.650   0.634   0.626   0.607   0.563   0.577   0.553   0.602   0.634   0.607   0.598   0.588   0.569   0.549   0.507   0.522   0.552   0.557   0.599   0.588   0.542   0.548   0.556   0.544   0.510   0.513   0.550   0.557   0.573   0.592   0.570   0.609   0.598   0.591   0.603   0.590   0.574   0.557   0.563   0.581   0.538   0.548   0.532   0.513   0.523   0.530   0.563   0.586   0.640   0.658   0.647   0.627   0.652   0.588   0.622   0.624   0.593   0.542   0.529   0.577   0.589   0.556   0.546   0.547   0.566   0.605   0.616   0.632   0.634   0.662   0.628   0.642   0.589   0.559   0.588   0.553   0.559   0.543   0.538   0.574   0.520   0.549   0.569   0.655   0.640   0.631   0.583   0.612   0.606   0.607   0.587   0.525   0.505   0.500   0.515   0.562   0.512   0.489   0.526   0.550   0.551   0.548   0.492   0.455   0.452   0.486   0.468   0.467   0.528   0.557   0.561   0.580   0.540   0.555   0.537   0.504   0.475   0.511   0.553   0.564   0.565   0.531   0.500   0.490   0.489   0.502   0.504   0.499   0.491   0.513   0.498   0.513   0.528   0.555   0.553   0.562   0.563   0.504   0.457   0.521   0.566   0.570   0.567   0.522   0.518   0.543   0.484   0.434   0.495   0.482   0.504   0.509   0.492   0.506   0.495
   121.90    0.596   0.554   0.611   0.567   0.580   0.536   0.565   0.588   0.575   0.589   0.611   0.655   0.629   0.620   0.639   0.631   0.608   0.602   0.619   0.601   0.623   0.618   0.576   0.589   0.598   0.539   0.569   0.561   0.528   0.561   0.585   0.630   0.624   0.619   0.637   0.616   0.659   0.627   0.587   0.632   0.647   0.626   0.586   0.601   0.608   0.633   0.658   0.613   0.588   0.556   0.527   0.540   0.517   0.493   0.512   0.509   0.527   0.567   0.537   0.545   0.552   0.528   0.517   0.479   0.516   0.569   0.582   0.615   0.589   0.596   0.592   0.600   0.607   0.582   0.583   0.564   0.564   0.570   0.582   0.566   0.553   0.527   0.559   0.538   0.550   0.621   0.623   0.591   0.617   0.603   0.581   0.616   0.587   0.562   0.565   0.527   0.543   0.553   0.577   0.564   0.585   0.585   0.593   0.585   0.607   0.612   0.681   0.657   0.629   0.612   0.617   0.596   0.588   0.546   0.548   0.552   0.538   0.578   0.549   0.572   0.545   0.614   0.654   0.638   0.617   0.607   0.566   0.565   0.556   0.547   0.469   0.469   0.509   0.545   0.545   0.550   0.555   0.518   0.501   0.510   0.484   0.442   0.457   0.443   0.466   0.482   0.516   0.555   0.602   0.574   0.536   0.537   0.507   0.499   0.452   0.488   0.518   0.526   0.543   0.555   0.498   0.488   0.463   0.492   0.498   0.482   0.470   0.484   0.465   0.477   0.514   0.566   0.557   0.564   0.572   0.567   0.520   0.512   0.548   0.535   0.556   0.538   0.514   0.512   0.471   0.449   0.468   0.479   0.547   0.490   0.503   0.492   0.510
   112.60    0.570   0.595   0.607   0.567   0.546   0.573   0.532   0.550   0.543   0.569   0.616   0.624   0.629   0.676   0.636   0.637   0.605   0.591   0.594   0.615   0.624   0.595   0.604   0.564   0.585   0.574   0.579   0.577   0.513   0.550   0.590   0.614   0.614   0.581   0.614   0.620   0.613   0.593   0.597   0.616   0.648   0.603   0.579   0.613   0.626   0.657   0.672   0.612   0.609   0.567   0.558   0.529   0.497   0.468   0.473   0.527   0.516   0.531   0.545   0.547   0.554   0.570   0.565   0.555   0.565   0.574   0.622   0.616   0.579   0.598   0.602   0.599   0.597   0.570   0.569   0.567   0.556   0.577   0.612   0.614   0.599   0.568   0.567   0.556   0.550   0.581   0.642   0.681   0.673   0.615   0.633   0.626   0.600   0.547   0.514   0.485   0.520   0.526   0.567   0.603   0.571   0.570   0.583   0.616   0.583   0.619   0.638   0.626   0.658   0.612   0.614   0.582   0.583   0.570   0.546   0.531   0.542   0.550   0.536   0.568   0.559   0.591   0.606   0.567   0.588   0.614   0.623   0.498   0.484   0.495   0.505   0.481   0.499   0.547   0.510   0.518   0.531   0.541   0.479   0.509   0.502   0.448   0.472   0.470   0.435   0.443   0.514   0.552   0.618   0.617   0.562   0.537   0.538   0.506   0.503   0.514   0.528   0.512   0.531   0.529   0.521   0.476   0.483   0.496   0.498   0.512   0.502   0.473   0.486   0.478   0.489   0.548   0.574   0.575   0.550   0.558   0.509   0.509   0.519   0.530   0.524   0.526   0.502   0.523   0.447   0.453   0.460   0.496   0.515   0.512   0.503   0.472   0.490
   103.30    0.572   0.602   0.591   0.549   0.564   0.548   0.509   0.510   0.542   0.596   0.644   0.649   0.651   0.686   0.665   0.625   0.602   0.543   0.554   0.581   0.539   0.564   0.565   0.561   0.580   0.550   0.568   0.550   0.545   0.568   0.581   0.558   0.581   0.591   0.581   0.582   0.601   0.611   0.601   0.595   0.586   0.633   0.593   0.577   0.605   0.640   0.691   0.638   0.567   0.559   0.577   0.492   0.525   0.485   0.485   0.554   0.554   0.521   0.540   0.548   0.539   0.546   0.535   0.550   0.563   0.619   0.635   0.632   0.595   0.596   0.593   0.567   0.592   0.581   0.534   0.563   0.571   0.574   0.557   0.610   0.615   0.567   0.540   0.546   0.537   0.560   0.613   0.640   0.629   0.669   0.625   0.604   0.614   0.511   0.533   0.538   0.505   0.512   0.558   0.605   0.579   0.605   0.591   0.575   0.601   0.587   0.593   0.634   0.617   0.631   0.598   0.604   0.550   0.568   0.540   0.516   0.497   0.515   0.494   0.501   0.515   0.588   0.596   0.606   0.613   0.614   0.549   0.546   0.490   0.490   0.487   0.492   0.509   0.505   0.477   0.492   0.517   0.498   0.473   0.488   0.502   0.478   0.502   0.492   0.432   0.454   0.510   0.542   0.621   0.658   0.586   0.560   0.511   0.496   0.514   0.528   0.540   0.522   0.533   0.550   0.542   0.514   0.555   0.521   0.505   0.528   0.581   0.543   0.527   0.505   0.513   0.559   0.555   0.539   0.554   0.524   0.509   0.475   0.505   0.532   0.492   0.493   0.500   0.497   0.460   0.462   0.422   0.491   0.507   0.497   0.495   0.494   0.472
    94.00    0.567   0.574   0.588   0.559   0.571   0.548   0.514   0.514   0.563   0.633   0.674   0.622   0.620   0.644   0.666   0.656   0.590   0.543   0.546   0.552   0.554   0.568   0.585   0.558   0.605   0.647   0.606   0.559   0.573   0.537   0.556   0.561   0.539   0.557   0.560   0.561   0.575   0.592   0.597   0.595   0.634   0.593   0.574   0.584   0.590   0.644   0.696   0.694   0.626   0.578   0.573   0.493   0.475   0.514   0.536   0.549   0.488   0.526   0.552   0.545   0.517   0.526   0.524   0.531   0.590   0.619   0.623   0.617   0.600   0.635   0.587   0.582   0.591   0.577   0.535   0.553   0.576   0.584   0.583   0.561   0.553   0.544   0.541   0.537   0.547   0.567   0.576   0.595   0.663   0.694   0.651   0.617   0.581   0.571   0.533   0.505   0.492   0.524   0.550   0.602   0.588   0.608   0.566   0.549   0.567   0.557   0.546   0.584   0.563   0.582   0.534   0.532   0.480   0.492   0.520   0.513   0.466   0.461   0.451   0.499   0.524   0.556   0.581   0.646   0.594   0.588   0.569   0.549   0.523   0.492   0.468   0.468   0.477   0.456   0.501   0.488   0.501   0.463   0.451   0.459   0.477   0.488   0.481   0.493   0.480   0.507   0.526   0.573   0.571   0.602   0.580   0.565   0.565   0.562   0.533   0.555   0.523   0.543   0.544   0.544   0.549   0.523   0.546   0.532   0.533   0.564   0.556   0.539   0.498   0.501   0.500   0.532   0.522   0.531   0.501   0.526   0.500   0.504   0.537   0.546   0.512   0.524   0.494   0.475   0.470   0.483   0.449   0.495   0.507   0.496   0.485   0.494   0.477
    84.70    0.600   0.542   0.549   0.556   0.553   0.533   0.518   0.552   0.581   0.608   0.636   0.619   0.600   0.625   0.635   0.617   0.576   0.533   0.516   0.545   0.536   0.569   0.567   0.577   0.614   0.595   0.582   0.594   0.548   0.573   0.583   0.577   0.569   0.568   0.555   0.525   0.559   0.582   0.574   0.599   0.600   0.573   0.590   0.574   0.605   0.648   0.643   0.641   0.627   0.587   0.532   0.477   0.471   0.493   0.489   0.514   0.526   0.572   0.575   0.511   0.539   0.537   0.527   0.524   0.553   0.591   0.572   0.575   0.605   0.661   0.615   0.646   0.656   0.576   0.557   0.528   0.555   0.532   0.559   0.581   0.538   0.523   0.538   0.536   0.532   0.537   0.558   0.603   0.667   0.677   0.645   0.627   0.621   0.574   0.555   0.533   0.550   0.557   0.520   0.527   0.562   0.560   0.578   0.598   0.572   0.515   0.558   0.561   0.538   0.533   0.482   0.532   0.482   0.471   0.475   0.514   0.491   0.471   0.479   0.467   0.518   0.561   0.575   0.595   0.573   0.600   0.592   0.557   0.570   0.504   0.539   0.472   0.494   0.443   0.502   0.506   0.542   0.517   0.500   0.464   0.452   0.459   0.499   0.479   0.512   0.522   0.485   0.522   0.545   0.565   0.562   0.563   0.580   0.547   0.520   0.559   0.580   0.575   0.568   0.579   0.560   0.568   0.543   0.520   0.513   0.528   0.527   0.530   0.521   0.502   0.507   0.542   0.537   0.496   0.523   0.534   0.541   0.508   0.519   0.564   0.530   0.522   0.485   0.494   0.481   0.461   0.460   0.492   0.492   0.471   0.479   0.490   0.496
    75.40    0.568   0.572   0.546   0.565   0.563   0.570   0.570   0.579   0.595   0.570   0.587   0.588   0.613   0.618   0.590   0.592   0.545   0.537   0.521   0.559   0.540   0.585   0.597   0.611   0.586   0.600   0.567   0.585   0.538   0.536   0.546   0.549   0.579   0.585   0.569   0.546   0.537   0.540   0.578   0.569   0.569   0.614   0.594   0.607   0.608   0.599   0.593   0.607   0.593   0.551   0.502   0.501   0.496   0.466   0.472   0.482   0.521   0.514   0.549   0.527   0.492   0.506   0.503   0.510   0.535   0.546   0.588   0.591   0.599   0.644   0.675   0.689   0.641   0.599   0.546   0.556   0.547   0.545   0.522   0.540   0.549   0.530   0.566   0.587   0.566   0.565   0.579   0.590   0.621   0.642   0.640   0.635   0.619   0.609   0.603   0.549   0.538   0.550   0.514   0.518   0.521   0.529   0.566   0.550   0.547   0.553   0.525   0.539   0.531   0.540   0.525   0.532   0.500   0.483   0.479   0.485   0.484   0.475   0.489   0.497   0.526   0.557   0.589   0.591   0.576   0.603   0.590   0.577   0.589   0.565   0.521   0.530   0.509   0.492   0.529   0.516   0.556   0.525   0.500   0.469   0.473   0.454   0.496   0.522   0.507   0.517   0.523   0.526   0.520   0.550   0.573   0.549   0.584   0.562   0.550   0.558   0.573   0.569   0.572   0.583   0.586   0.546   0.557   0.523   0.496   0.483   0.514   0.520   0.494   0.525   0.531   0.520   0.536   0.532   0.533   0.553   0.560   0.518   0.554   0.598   0.548   0.549   0.497   0.472   0.467   0.458   0.488   0.490   0.498   0.498   0.510   0.501   0.512
    66.10    0.601   0.594   0.544   0.565   0.593   0.627   0.588   0.618   0.586   0.571   0.607   0.643   0.587   0.603   0.577   0.570   0.582   0.543   0.599   0.580   0.573   0.613   0.644   0.649   0.632   0.586   0.584   0.579   0.540   0.544   0.566   0.556   0.546   0.571   0.540   0.520   0.520   0.519   0.543   0.586   0.580   0.579   0.667   0.597   0.580   0.546   0.554   0.581   0.581   0.506   0.527   0.483   0.502   0.475   0.452   0.451   0.499   0.513   0.520   0.501   0.520   0.501   0.497   0.535   0.518   0.553   0.560   0.591   0.600   0.647   0.683   0.683   0.623   0.583   0.548   0.533   0.549   0.530   0.510   0.515   0.482   0.504   0.527   0.574   0.587   0.614   0.647   0.606   0.638   0.654   0.646   0.613   0.647   0.624   0.609   0.575   0.558   0.552   0.507   0.511   0.531   0.522   0.548   0.541   0.563   0.534   0.549   0.576   0.542   0.514   0.547   0.542   0.525   0.439   0.451   0.436   0.470   0.483   0.523   0.520   0.523   0.524   0.546   0.578   0.584   0.602   0.561   0.606   0.543   0.541   0.554   0.532   0.523   0.490   0.531   0.539   0.538   0.509   0.502   0.498   0.485   0.492   0.497   0.494   0.499   0.509   0.543   0.535   0.524   0.532   0.533   0.522   0.529   0.520   0.524   0.498   0.534   0.540   0.552   0.568   0.580   0.540   0.570   0.507   0.499   0.527   0.511   0.513   0.531   0.546   0.537   0.542   0.517   0.505   0.522   0.551   0.545   0.522   0.575   0.555   0.566   0.531   0.513   0.449   0.481   0.461   0.477   0.488   0.501   0.459   0.483   0.491   0.533
    56.80    0.612   0.615   0.581   0.567   0.594   0.622   0.646   0.637   0.670   0.599   0.611   0.622   0.600   0.595   0.576   0.588   0.579   0.598   0.605   0.629   0.590   0.634   0.645   0.624   0.613   0.614   0.574   0.603   0.571   0.550   0.535   0.566   0.561   0.591   0.533   0.506   0.522   0.536   0.516   0.596   0.613   0.624   0.631   0.594   0.580   0.558   0.543   0.552   0.557   0.568   0.503   0.473   0.484   0.463   0.462   0.499   0.478   0.514   0.493   0.535   0.574   0.524   0.501   0.533   0.554   0.548   0.534   0.542   0.564   0.601   0.650   0.649   0.602   0.576   0.567   0.504   0.550   0.541   0.556   0.509   0.511   0.510   0.516   0.528   0.564   0.592   0.591   0.572   0.620   0.645   0.655   0.614   0.587   0.605   0.586   0.574   0.559   0.525   0.523   0.512   0.512   0.533   0.562   0.584   0.582   0.539   0.551   0.578   0.581   0.545   0.546   0.554   0.500   0.449   0.453   0.465   0.473   0.500   0.537   0.505   0.563   0.561   0.536   0.569   0.572   0.564   0.557   0.551   0.568   0.577   0.573   0.557   0.530   0.499   0.541   0.541   0.552   0.511   0.506   0.507   0.489   0.493   0.503   0.480   0.473   0.508   0.519   0.518   0.489   0.508   0.494   0.460   0.490   0.495   0.502   0.488   0.525   0.546   0.525   0.566   0.583   0.561   0.582   0.541   0.489   0.523   0.534   0.543   0.525   0.516   0.557   0.550   0.527   0.512   0.498   0.541   0.556   0.546   0.567   0.544   0.556   0.570   0.588   0.507   0.520   0.496   0.496   0.516   0.496   0.474   0.476   0.506   0.528
    47.50    0.570   0.600   0.583   0.598   0.644   0.653   0.643   0.648   0.648   0.659   0.614   0.628   0.618   0.599   0.601   0.650   0.622   0.613   0.575   0.605   0.624   0.611   0.611   0.610   0.597   0.567   0.564   0.546   0.545   0.522   0.558   0.522   0.540   0.541   0.515   0.546   0.538   0.541   0.583   0.587   0.581   0.606   0.612   0.591   0.603   0.607   0.553   0.552   0.577   0.530   0.504   0.475   0.467   0.461   0.468   0.472   0.487   0.510   0.486   0.520   0.516   0.517   0.523   0.524   0.540   0.590   0.570   0.580   0.561   0.597   0.614   0.618   0.559   0.546   0.538   0.537   0.555   0.558   0.557   0.564   0.543   0.514   0.525   0.498   0.537   0.566   0.573   0.593   0.640   0.605   0.614   0.617   0.591   0.598   0.591   0.596   0.563   0.546   0.539   0.536   0.583   0.611   0.586   0.598   0.624   0.571   0.561   0.596   0.551   0.584   0.533   0.529   0.542   0.530   0.502   0.493   0.485   0.519   0.508   0.532   0.540   0.534   0.526   0.542   0.534   0.537   0.539   0.528   0.565   0.589   0.560   0.556   0.541   0.517   0.513   0.527   0.509   0.526   0.514   0.519   0.465   0.465   0.493   0.491   0.468   0.531   0.508   0.463   0.487   0.487   0.471   0.484   0.484   0.477   0.467   0.482   0.496   0.537   0.534   0.568   0.569   0.584   0.574   0.548   0.535   0.500   0.506   0.536   0.557   0.535   0.552   0.513   0.520   0.541   0.499   0.540   0.560   0.550   0.568   0.551   0.561   0.582   0.563   0.540   0.540   0.510   0.512   0.489   0.496   0.516   0.516   0.525   0.533
    38.20    0.532   0.560   0.596   0.585   0.635   0.650   0.635   0.604   0.613   0.661   0.640   0.668   0.610   0.623   0.620   0.634   0.660   0.637   0.587   0.591   0.591   0.611   0.589   0.617   0.569   0.573   0.563   0.552   0.541   0.516   0.567   0.575   0.558   0.557   0.539   0.567   0.585   0.591   0.581   0.547   0.567   0.557   0.543   0.552   0.553   0.577   0.575   0.562   0.547   0.526   0.521   0.488   0.469   0.481   0.480   0.481   0.542   0.533   0.500   0.517   0.521   0.496   0.516   0.543   0.528   0.528   0.489   0.528   0.536   0.568   0.564   0.585   0.599   0.602   0.544   0.561   0.562   0.606   0.577   0.558   0.563   0.570   0.519   0.528   0.556   0.541   0.546   0.585   0.609   0.599   0.603   0.599   0.623   0.573   0.586   0.600   0.573   0.562   0.555   0.571   0.580   0.602   0.615   0.568   0.559   0.538   0.543   0.576   0.606   0.585   0.535   0.561   0.542   0.562   0.531   0.505   0.533   0.517   0.540   0.502   0.532   0.537   0.497   0.494   0.522   0.509   0.521   0.500   0.519   0.583   0.550   0.536   0.529   0.518   0.514   0.516   0.525   0.522   0.493   0.511   0.509   0.473   0.498   0.472   0.498   0.483   0.510   0.500   0.473   0.446   0.481   0.473   0.477   0.473   0.477   0.463   0.485   0.516   0.530   0.570   0.597   0.551   0.541   0.517   0.521   0.528   0.524   0.519   0.516   0.542   0.542   0.552   0.503   0.538   0.530   0.564   0.590   0.602   0.570   0.566   0.557   0.536   0.509   0.502   0.490   0.526   0.560   0.529   0.514   0.556   0.558   0.547   0.528
    28.90    0.583   0.564   0.592   0.595   0.613   0.655   0.565   0.591   0.607   0.596   0.639   0.605   0.615   0.587   0.614   0.639   0.627   0.598   0.622   0.621   0.600   0.604   0.551   0.540   0.572   0.565   0.531   0.540   0.590   0.547   0.540   0.595   0.562   0.588   0.576   0.559   0.566   0.562   0.595   0.533   0.547   0.530   0.568   0.533   0.571   0.572   0.572   0.576   0.566   0.543   0.522   0.517   0.482   0.469   0.480   0.498   0.551   0.547   0.518   0.513   0.498   0.502   0.486   0.496   0.472   0.480   0.492   0.518   0.525   0.540   0.599   0.610   0.591   0.593   0.563   0.561   0.597   0.624   0.592   0.594   0.591   0.611   0.591   0.565   0.564   0.504   0.548   0.564   0.586   0.601   0.575   0.598   0.573   0.585   0.607   0.594   0.626   0.611   0.622   0.590   0.561   0.531   0.533   0.546   0.515   0.463   0.532   0.565   0.586   0.563   0.552   0.560   0.557   0.536   0.559   0.551   0.569   0.534   0.513   0.535   0.511   0.496   0.470   0.501   0.490   0.508   0.522   0.520   0.536   0.531   0.522   0.541   0.513   0.530   0.517   0.551   0.525   0.497   0.498   0.476   0.491   0.496   0.461   0.505   0.509   0.481   0.500   0.500   0.479   0.456   0.454   0.474   0.495   0.462   0.465   0.487   0.489   0.523   0.538   0.546   0.566   0.524   0.498   0.547   0.538   0.536   0.538   0.542   0.559   0.559   0.554   0.578   0.583   0.514   0.537   0.562   0.584   0.573   0.584   0.535   0.519   0.482   0.520   0.504   0.511   0.504   0.510   0.547   0.588   0.543   0.582   0.562   0.547
    19.60    0.576   0.591   0.616   0.566   0.602   0.608   0.577   0.624   0.593   0.634   0.610   0.634   0.623   0.583   0.613   0.655   0.655   0.620   0.624   0.642   0.597   0.636   0.599   0.578   0.541   0.526   0.550   0.558   0.571   0.576   0.576   0.557   0.564   0.572   0.610   0.566   0.570   0.552   0.546   0.533   0.501   0.523   0.524   0.544   0.577   0.546   0.562   0.556   0.538   0.530   0.509   0.495   0.494   0.499   0.533   0.572   0.544   0.545   0.508   0.523   0.486   0.487   0.477   0.491   0.454   0.475   0.481   0.541   0.548   0.572   0.592   0.594   0.566   0.612   0.583   0.569   0.559   0.595   0.562   0.566   0.560   0.576   0.610   0.596   0.583   0.524   0.497   0.524   0.575   0.569   0.554   0.561   0.571   0.589   0.631   0.615   0.657   0.661   0.605   0.583   0.568   0.514   0.525   0.481   0.542   0.523   0.561   0.601   0.564   0.593   0.575   0.554   0.553   0.530   0.514   0.535   0.539   0.549   0.537   0.526   0.493   0.458   0.456   0.486   0.485   0.488   0.497   0.528   0.506   0.503   0.499   0.509   0.510   0.519   0.567   0.562   0.523   0.502   0.492   0.473   0.504   0.507   0.462   0.513   0.488   0.497   0.491   0.468   0.448   0.463   0.462   0.462   0.474   0.473   0.484   0.509   0.490   0.503   0.522   0.538   0.525   0.505   0.502   0.521   0.532   0.538   0.512   0.513   0.585   0.593   0.559   0.539   0.544   0.556   0.533   0.533   0.519   0.534   0.531   0.509   0.526   0.480   0.514   0.528   0.526   0.561   0.549   0.542   0.531   0.557   0.557   0.565   0.524
    10.30    0.567   0.611   0.623   0.586   0.597   0.596   0.639   0.604   0.633   0.640   0.606   0.610   0.588   0.592   0.586   0.634   0.608   0.603   0.600   0.581   0.614   0.658   0.634   0.561   0.519   0.520   0.545   0.533   0.567   0.580   0.564   0.561   0.551   0.543   0.594   0.565   0.544   0.545   0.550   0.515   0.549   0.540   0.533   0.553   0.539   0.504   0.542   0.542   0.559   0.505   0.501   0.497   0.524   0.544   0.571   0.569   0.558   0.553   0.511   0.488   0.481   0.494   0.488   0.461   0.476   0.500   0.533   0.560   0.559   0.585   0.617   0.598   0.595   0.592   0.605   0.586   0.570   0.598   0.588   0.604   0.589   0.587   0.621   0.589   0.618   0.571   0.514   0.509   0.568   0.581   0.575   0.559   0.571   0.635   0.634   0.644   0.631   0.620   0.631   0.586   0.568   0.545   0.519   0.538   0.577   0.580   0.587   0.584   0.552   0.577   0.574   0.570   0.545   0.516   0.503   0.495   0.494   0.527   0.524   0.555   0.486   0.494   0.468   0.453   0.487   0.483   0.456   0.491   0.512   0.504   0.505   0.547   0.517   0.535   0.513   0.523   0.515   0.507   0.539   0.521   0.514   0.530   0.512   0.509   0.504   0.539   0.484   0.476   0.479   0.491   0.505   0.492   0.484   0.492   0.482   0.505   0.504   0.494   0.529   0.554   0.558   0.524   0.542   0.510   0.513   0.519   0.526   0.542   0.565   0.574   0.522   0.521   0.541   0.572   0.523   0.512   0.483   0.507   0.521   0.516   0.500   0.508   0.525   0.507   0.529   0.543   0.551   0.538   0.527   0.573   0.561   0.531   0.561
     1.00    0.573   0.568   0.568   0.586   0.577   0.609   0.604   0.599   0.620   0.617   0.591   0.593   0.585   0.612   0.558   0.582   0.598   0.595   0.616   0.641   0.593   0.619   0.641   0.573   0.551   0.537   0.553   0.536   0.512   0.573   0.564   0.552   0.550   0.557   0.561   0.548   0.527   0.521   0.512   0.561   0.549   0.555   0.543   0.564   0.590   0.545   0.524   0.548   0.549   0.511   0.487   0.521   0.547   0.569   0.568   0.575   0.557   0.563   0.511   0.524   0.526   0.497   0.493   0.482   0.483   0.522   0.546   0.565   0.553   0.564   0.568   0.566   0.578   0.593   0.613   0.589   0.564   0.558   0.599   0.586   0.603   0.578   0.589   0.582   0.564   0.595   0.548   0.515   0.545   0.571   0.576   0.585   0.596   0.629   0.583   0.642   0.643   0.631   0.579   0.621   0.577   0.542   0.555   0.537   0.561   0.554   0.572   0.579   0.605   0.617   0.596   0.586   0.558   0.486   0.510   0.503   0.532   0.525   0.527   0.507   0.486   0.487   0.447   0.452   0.468   0.463   0.464   0.467   0.493   0.497   0.517   0.516   0.514   0.487   0.501   0.526   0.499   0.488   0.507   0.535   0.551   0.504   0.515   0.541   0.559   0.550   0.533   0.507   0.471   0.493   0.536   0.525   0.527   0.533   0.541   0.540   0.514   0.490   0.511   0.517   0.531   0.537   0.557   0.543   0.558   0.562   0.532   0.553   0.562   0.551   0.556   0.568   0.573   0.506   0.544   0.521   0.537   0.516   0.538   0.521   0.518   0.537   0.525   0.502   0.538   0.496   0.541   0.538   0.564   0.566   0.537   0.542   0.543

   Height   Standard deviation at grid points for the v component:
   354.40    0.472   0.471   0.477   0.479   0.487   0.506   0.486   0.507   0.482   0.481   0.473   0.473   0.453   0.464   0.464   0.486   0.499   0.499   0.473   0.458   0.480   0.490   0.469   0.502   0.511   0.480   0.475   0.475   0.465   0.444   0.435   0.454   0.458   0.445   0.425   0.460   0.461   0.449   0.454   0.432   0.401   0.428   0.428   0.436   0.477   0.504   0.486   0.489   0.473   0.470   0.481   0.484   0.460   0.478   0.473   0.489   0.498   0.517   0.511   0.506   0.501   0.524   0.514   0.519   0.481   0.485   0.497   0.496   0.490   0.492   0.494   0.498   0.489   0.505   0.480   0.496   0.487   0.454   0.464   0.473   0.455   0.450   0.436   0.445   0.458   0.460   0.472   0.470   0.478   0.476   0.494   0.508   0.522   0.512   0.497   0.475   0.462   0.436   0.438   0.465   0.439   0.418   0.455   0.463   0.490   0.482   0.437   0.440   0.421   0.436   0.429   0.436   0.459   0.429   0.457   0.432   0.430   0.431   0.471   0.484   0.490   0.446   0.464   0.432   0.458   0.472   0.470   0.501   0.506   0.482   0.493   0.487   0.488   0.517   0.517   0.491   0.503   0.493   0.508   0.484   0.483   0.492   0.502   0.520   0.490   0.493   0.498   0.484   0.480   0.486   0.492   0.491   0.452   0.464   0.426   0.456   0.445   0.435   0.414   0.453   0.467   0.449   0.453   0.462   0.452   0.436   0.437   0.451   0.448   0.455   0.463   0.488   0.499   0.518   0.542   0.575   0.554   0.531   0.547   0.535   0.537   0.507   0.495   0.479   0.498   0.511   0.516   0.519   0.493   0.499   0.515   0.495   0.483
   345.10    0.462   0.466   0.476   0.501   0.503   0.493   0.500   0.493   0.486   0.496   0.497   0.492   0.469   0.478   0.501   0.515   0.508   0.456   0.458   0.463   0.479   0.465   0.483   0.486   0.498   0.490   0.477   0.469   0.439   0.436   0.433   0.455   0.446   0.452   0.425   0.445   0.444   0.431   0.456   0.431   0.395   0.387   0.429   0.456   0.464   0.504   0.501   0.479   0.495   0.492   0.505   0.501   0.496   0.473   0.497   0.522   0.528   0.549   0.517   0.516   0.493   0.509   0.519   0.510   0.509   0.499   0.514   0.476   0.498   0.510   0.518   0.505   0.490   0.503   0.464   0.473   0.452   0.465   0.473   0.437   0.437   0.439   0.420   0.427   0.459   0.466   0.492   0.466   0.473   0.477   0.488   0.507   0.522   0.512   0.484   0.473   0.439   0.447   0.448   0.459   0.440   0.456   0.478   0.501   0.491   0.483   0.460   0.442   0.427   0.454   0.442   0.447   0.450   0.426   0.442   0.448   0.459   0.477   0.480   0.479   0.470   0.466   0.449   0.462   0.482   0.504   0.499   0.481   0.481   0.488   0.480   0.465   0.500   0.503   0.493   0.465   0.492   0.510   0.515   0.504   0.476   0.496   0.505   0.506   0.524   0.533   0.526   0.482   0.462   0.442   0.467   0.473   0.484   0.462   0.445   0.441   0.436   0.448   0.419   0.451   0.478   0.451   0.445   0.441   0.453   0.444   0.424   0.439   0.468   0.470   0.484   0.508   0.483   0.513   0.531   0.553   0.562   0.541   0.514   0.511   0.516   0.508   0.512   0.502   0.487   0.490   0.486   0.517   0.491   0.497   0.515   0.499   0.502
   335.80    0.465   0.487   0.493   0.494   0.476   0.497   0.484   0.482   0.485   0.499   0.495   0.473   0.471   0.471   0.519   0.510   0.517   0.500   0.479   0.481   0.474   0.492   0.501   0.509   0.530   0.511   0.484   0.470   0.474   0.423   0.430   0.451   0.448   0.462   0.423   0.466   0.464   0.441   0.432   0.423   0.416   0.416   0.431   0.472   0.475   0.481   0.491   0.488   0.465   0.473   0.498   0.491   0.496   0.492   0.479   0.528   0.515   0.537   0.519   0.505   0.510   0.485   0.507   0.511   0.496   0.519   0.530   0.519   0.496   0.500   0.488   0.485   0.489   0.485   0.448   0.468   0.461   0.475   0.472   0.450   0.418   0.408   0.391   0.406   0.430   0.463   0.482   0.487   0.470   0.476   0.492   0.474   0.498   0.509   0.502   0.470   0.441   0.440   0.459   0.463   0.467   0.465   0.503   0.505   0.488   0.471   0.444   0.467   0.441   0.452   0.432   0.439   0.453   0.445   0.476   0.473   0.487   0.494   0.508   0.514   0.495   0.476   0.493   0.475   0.490   0.515   0.507   0.497   0.479   0.468   0.461   0.475   0.467   0.466   0.477   0.488   0.490   0.518   0.525   0.505   0.502   0.508   0.528   0.518   0.525   0.535   0.506   0.502   0.491   0.479   0.463   0.473   0.469   0.453   0.417   0.429   0.428   0.422   0.438   0.445   0.459   0.438   0.429   0.448   0.427   0.426   0.421   0.450   0.454   0.466   0.482   0.495   0.490   0.531   0.529   0.520   0.535   0.511   0.488   0.486   0.509   0.518   0.510   0.474   0.487   0.485   0.480   0.488   0.509   0.487   0.511   0.509   0.490
   326.50    0.447   0.461   0.478   0.482   0.507   0.500   0.494   0.492   0.486   0.482   0.465   0.465   0.477   0.500   0.505   0.490   0.477   0.493   0.501   0.482   0.491   0.507   0.512   0.537   0.529   0.484   0.465   0.469   0.465   0.453   0.435   0.469   0.456   0.448   0.450   0.462   0.468   0.442   0.423   0.431   0.454   0.461   0.452   0.473   0.473   0.481   0.481   0.458   0.467   0.461   0.467   0.496   0.527   0.511   0.496   0.529   0.508   0.542   0.531   0.498   0.493   0.479   0.475   0.511   0.489   0.521   0.518   0.515   0.514   0.507   0.484   0.496   0.475   0.469   0.448   0.451   0.458   0.447   0.428   0.444   0.428   0.411   0.407   0.424   0.424   0.431   0.468   0.460   0.453   0.463   0.470   0.466   0.494   0.488   0.480   0.454   0.421   0.409   0.452   0.461   0.457   0.474   0.513   0.507   0.496   0.478   0.471   0.485   0.467   0.439   0.447   0.450   0.454   0.440   0.464   0.490   0.494   0.485   0.511   0.489   0.487   0.494   0.505   0.515   0.490   0.517   0.520   0.500   0.479   0.474   0.473   0.467   0.458   0.488   0.485   0.504   0.509   0.493   0.506   0.505   0.504   0.516   0.534   0.520   0.532   0.518   0.495   0.513   0.489   0.496   0.473   0.483   0.469   0.477   0.457   0.450   0.447   0.428   0.441   0.446   0.439   0.435   0.428   0.429   0.440   0.434   0.430   0.467   0.472   0.465   0.487   0.495   0.518   0.513   0.521   0.520   0.535   0.511   0.487   0.507   0.496   0.489   0.490   0.495   0.491   0.479   0.489   0.475   0.490   0.499   0.487   0.488   0.472
[...]
   103.30    0.294   0.296   0.298   0.298   0.284   0.279   0.276   0.279   0.280   0.265   0.277   0.280   0.289   0.293   0.293   0.291   0.288   0.292   0.285   0.293   0.282   0.287   0.288   0.277   0.281   0.285   0.277   0.284   0.266   0.272   0.273   0.274   0.282   0.283   0.291   0.288   0.269   0.282   0.283   0.277   0.283   0.286   0.290   0.284   0.284   0.280   0.286   0.274   0.287   0.285   0.293   0.303   0.295   0.279   0.267   0.283   0.286   0.290   0.286   0.295   0.298   0.288   0.275   0.279   0.274   0.272   0.281   0.287   0.283   0.284   0.281   0.276   0.274   0.282   0.273   0.275   0.271   0.273   0.279   0.284   0.281   0.278   0.280   0.286   0.275   0.274   0.280   0.277   0.280   0.278   0.291   0.285   0.284   0.294   0.297   0.291   0.288   0.276   0.277   0.273   0.284   0.275   0.290   0.281   0.281   0.294   0.306   0.285   0.265   0.273   0.274   0.271   0.284   0.286   0.294   0.295   0.306   0.303   0.289   0.288   0.285   0.291   0.284   0.286   0.279   0.282   0.281   0.279   0.286   0.287   0.295   0.297   0.298   0.287   0.299   0.302   0.289   0.292   0.289   0.290   0.297   0.298   0.304   0.293   0.284   0.286   0.288   0.278   0.290   0.280   0.286   0.287   0.286   0.282   0.285   0.288   0.287   0.291   0.290   0.288   0.284   0.284   0.279   0.282   0.281   0.294   0.281   0.284   0.285   0.297   0.296   0.285   0.284   0.280   0.279   0.279   0.290   0.286   0.288   0.283   0.276   0.275   0.281   0.281   0.284   0.276   0.287   0.294   0.284   0.290   0.287   0.273   0.289
    94.00    0.295   0.295   0.298   0.292   0.288   0.284   0.280   0.274   0.276   0.277   0.286   0.282   0.288   0.293   0.288   0.279   0.282   0.281   0.288   0.296   0.288   0.287   0.287   0.290   0.282   0.292   0.289   0.288   0.271   0.278   0.278   0.271   0.276   0.281   0.277   0.285   0.276   0.281   0.276   0.273   0.279   0.291   0.285   0.283   0.277   0.272   0.273   0.269   0.276   0.279   0.285   0.288   0.291   0.294   0.286   0.291   0.291   0.284   0.291   0.284   0.283   0.290   0.285   0.282   0.269   0.274   0.280   0.281   0.278   0.279   0.278   0.285   0.279   0.277   0.276   0.279   0.275   0.280   0.279   0.289   0.288   0.284   0.285   0.285   0.284   0.264   0.279   0.278   0.287   0.285   0.284   0.288   0.286   0.288   0.294   0.294   0.291   0.280   0.269   0.263   0.273   0.272   0.284   0.289   0.282   0.297   0.296   0.283   0.280   0.281   0.285   0.280   0.290   0.297   0.292   0.289   0.298   0.295   0.292   0.295   0.283   0.293   0.281   0.276   0.283   0.291   0.281   0.275   0.288   0.291   0.288   0.288   0.300   0.302   0.299   0.289   0.285   0.277   0.290   0.288   0.293   0.294   0.290   0.284   0.280   0.280   0.285   0.273   0.282   0.287   0.273   0.278   0.273   0.280   0.280   0.276   0.285   0.301   0.295   0.279   0.276   0.270   0.280   0.281   0.273   0.292   0.284   0.283   0.291   0.295   0.295   0.279   0.292   0.292   0.282   0.283   0.283   0.275   0.284   0.274   0.278   0.283   0.294   0.288   0.280   0.281   0.280   0.296   0.282   0.287   0.281   0.290   0.296
    84.70    0.295   0.295   0.290   0.293   0.282   0.291   0.286   0.283   0.282   0.275   0.278   0.285   0.287   0.288   0.277   0.280   0.281   0.281   0.298   0.297   0.282   0.282   0.297   0.300   0.300   0.295   0.284   0.293   0.285   0.282   0.277   0.274   0.275   0.274   0.280   0.275   0.286   0.274   0.282   0.277   0.277   0.285   0.281   0.290   0.286   0.275   0.278   0.271   0.275   0.278   0.283   0.289   0.278   0.289   0.291   0.282   0.275   0.292   0.289   0.279   0.283   0.280   0.285   0.278   0.277   0.286   0.285   0.286   0.290   0.283   0.292   0.295   0.288   0.280   0.276   0.285   0.273   0.284   0.282   0.284   0.287   0.289   0.280   0.278   0.269   0.265   0.283   0.287   0.282   0.279   0.279   0.290   0.281   0.285   0.291   0.293   0.292   0.278   0.281   0.267   0.263   0.269   0.270   0.284   0.287   0.294   0.292   0.286   0.287   0.276   0.286   0.291   0.287   0.296   0.291   0.292   0.287   0.281   0.291   0.282   0.277   0.292   0.280   0.269   0.282   0.281   0.269   0.274   0.285   0.291   0.291   0.282   0.279   0.289   0.295   0.285   0.283   0.281   0.278   0.284   0.288   0.285   0.283   0.273   0.281   0.282   0.277   0.287   0.288   0.288   0.278   0.277   0.281   0.272   0.276   0.287   0.297   0.298   0.298   0.283   0.287   0.278   0.281   0.290   0.289   0.289   0.283   0.290   0.276   0.273   0.280   0.284   0.294   0.292   0.283   0.285   0.286   0.282   0.279   0.275   0.283   0.286   0.287   0.286   0.281   0.283   0.280   0.290   0.276   0.275   0.286   0.290   0.290
    75.40    0.287   0.282   0.288   0.293   0.291   0.292   0.292   0.282   0.288   0.292   0.289   0.284   0.282   0.279   0.288   0.277   0.287   0.291   0.295   0.283   0.282   0.275   0.290   0.296   0.293   0.286   0.289   0.278   0.282   0.287   0.288   0.274   0.278   0.284   0.275   0.286   0.282   0.271   0.274   0.277   0.280   0.276   0.288   0.281   0.280   0.278   0.275   0.267   0.277   0.275   0.285   0.292   0.286   0.288   0.282   0.283   0.276   0.279   0.277   0.276   0.285   0.285   0.281   0.281   0.285   0.285   0.292   0.293   0.284   0.280   0.286   0.291   0.292   0.286   0.288   0.283   0.281   0.283   0.282   0.274   0.280   0.275   0.274   0.277   0.272   0.281   0.283   0.283   0.286   0.289   0.278   0.285   0.279   0.287   0.281   0.296   0.292   0.283   0.284   0.270   0.262   0.268   0.265   0.271   0.283   0.293   0.289   0.292   0.291   0.288   0.285   0.294   0.294   0.297   0.296   0.289   0.291   0.284   0.282   0.282   0.280   0.285   0.281   0.289   0.285   0.287   0.274   0.287   0.284   0.285   0.285   0.289   0.290   0.289   0.279   0.284   0.277   0.272   0.273   0.276   0.286   0.285   0.289   0.287   0.278   0.280   0.272   0.273   0.281   0.283   0.279   0.271   0.269   0.279   0.276   0.286   0.283   0.291   0.288   0.281   0.279   0.291   0.286   0.290   0.279   0.282   0.289   0.292   0.280   0.269   0.282   0.279   0.289   0.285   0.281   0.276   0.280   0.282   0.270   0.280   0.277   0.279   0.289   0.285   0.280   0.280   0.280   0.280   0.279   0.279   0.282   0.277   0.281
    66.10    0.287   0.285   0.289   0.296   0.294   0.298   0.300   0.291   0.285   0.291   0.283   0.285   0.278   0.284   0.280   0.272   0.280   0.281   0.284   0.277   0.285   0.291   0.282   0.276   0.286   0.280   0.282   0.274   0.282   0.282   0.283   0.289   0.278   0.283   0.283   0.270   0.285   0.273   0.278   0.283   0.281   0.290   0.282   0.279   0.286   0.281   0.274   0.271   0.278   0.274   0.280   0.282   0.279   0.286   0.282   0.278   0.276   0.284   0.277   0.265   0.277   0.278   0.281   0.279   0.286   0.300   0.289   0.293   0.292   0.296   0.286   0.290   0.289   0.283   0.281   0.268   0.274   0.282   0.286   0.289   0.273   0.270   0.275   0.281   0.273   0.277   0.283   0.277   0.288   0.290   0.281   0.277   0.285   0.287   0.285   0.291   0.293   0.290   0.286   0.279   0.280   0.267   0.261   0.269   0.276   0.299   0.284   0.289   0.292   0.297   0.296   0.295   0.299   0.293   0.283   0.278   0.290   0.285   0.284   0.283   0.283   0.286   0.289   0.296   0.290   0.287   0.286   0.281   0.284   0.285   0.296   0.284   0.284   0.282   0.282   0.283   0.283   0.276   0.279   0.284   0.289   0.291   0.287   0.284   0.283   0.282   0.277   0.278   0.280   0.279   0.276   0.276   0.283   0.281   0.281   0.285   0.284   0.278   0.279   0.272   0.282   0.286   0.297   0.289   0.286   0.289   0.280   0.269   0.274   0.274   0.276   0.280   0.279   0.280   0.283   0.288   0.280   0.278   0.268   0.270   0.271   0.276   0.278   0.277   0.278   0.276   0.285   0.291   0.278   0.270   0.281   0.282   0.283
    56.80    0.286   0.290   0.295   0.296   0.293   0.290   0.295   0.289   0.275   0.280   0.288   0.284   0.279   0.280   0.275   0.284   0.282   0.274   0.279   0.280   0.275   0.277   0.281   0.278   0.280   0.281   0.273   0.281   0.286   0.284   0.269   0.279   0.277   0.280   0.288   0.283   0.276   0.276   0.291   0.291   0.284   0.279   0.281   0.286   0.281   0.284   0.280   0.270   0.274   0.276   0.275   0.282   0.281   0.278   0.275   0.275   0.283   0.285   0.282   0.283   0.285   0.278   0.284   0.278   0.291   0.288   0.295   0.296   0.293   0.280   0.287   0.284   0.285   0.277   0.284   0.273   0.279   0.289   0.281   0.284   0.273   0.275   0.272   0.275   0.269   0.272   0.284   0.286   0.290   0.278   0.272   0.276   0.285   0.283   0.286   0.286   0.286   0.288   0.285   0.283   0.279   0.268   0.280   0.287   0.277   0.293   0.295   0.300   0.308   0.299   0.296   0.291   0.288   0.287   0.283   0.284   0.290   0.289   0.290   0.289   0.289   0.283   0.291   0.293   0.293   0.287   0.286   0.287   0.279   0.290   0.292   0.290   0.280   0.276   0.268   0.280   0.281   0.278   0.289   0.292   0.287   0.291   0.287   0.287   0.290   0.289   0.283   0.282   0.282   0.282   0.290   0.289   0.281   0.283   0.287   0.285   0.289   0.287   0.282   0.279   0.280   0.281   0.290   0.289   0.280   0.285   0.280   0.278   0.274   0.270   0.279   0.278   0.288   0.285   0.275   0.278   0.282   0.272   0.277   0.278   0.271   0.274   0.277   0.279   0.275   0.271   0.283   0.291   0.283   0.285   0.281   0.275   0.282
    47.50    0.282   0.290   0.294   0.300   0.294   0.293   0.289   0.285   0.277   0.281   0.288   0.290   0.288   0.292   0.291   0.286   0.287   0.278   0.279   0.284   0.274   0.279   0.281   0.289   0.287   0.284   0.281   0.285   0.287   0.277   0.279   0.279   0.277   0.292   0.285   0.279   0.276   0.263   0.279   0.281   0.282   0.276   0.286   0.279   0.285   0.283   0.283   0.275   0.273   0.275   0.276   0.278   0.272   0.280   0.282   0.281   0.284   0.284   0.281   0.275   0.286   0.279   0.287   0.283   0.284   0.288   0.286   0.295   0.289   0.280   0.285   0.280   0.281   0.278   0.281   0.279   0.268   0.278   0.278   0.277   0.275   0.274   0.278   0.281   0.278   0.281   0.285   0.278   0.292   0.291   0.281   0.280   0.280   0.287   0.290   0.285   0.281   0.283   0.291   0.284   0.278   0.283   0.288   0.277   0.291   0.294   0.296   0.300   0.299   0.291   0.296   0.283   0.285   0.276   0.270   0.279   0.285   0.278   0.280   0.283   0.284   0.281   0.287   0.286   0.293   0.288   0.273   0.277   0.289   0.290   0.289   0.284   0.279   0.278   0.278   0.274   0.280   0.275   0.275   0.281   0.284   0.291   0.294   0.297   0.288   0.293   0.277   0.273   0.273   0.277   0.287   0.272   0.282   0.272   0.276   0.284   0.285   0.281   0.281   0.275   0.280   0.285   0.284   0.282   0.281   0.282   0.285   0.282   0.282   0.273   0.278   0.266   0.276   0.287   0.287   0.281   0.284   0.275   0.281   0.270   0.266   0.270   0.278   0.278   0.268   0.274   0.289   0.290   0.289   0.294   0.281   0.289   0.284
    38.20    0.292   0.285   0.293   0.287   0.299   0.297   0.288   0.284   0.292   0.286   0.294   0.285   0.278   0.289   0.292   0.289   0.283   0.277   0.273   0.277   0.282   0.282   0.291   0.285   0.281   0.289   0.286   0.279   0.281   0.283   0.283   0.277   0.279   0.281   0.269   0.268   0.281   0.272   0.272   0.262   0.257   0.273   0.274   0.278   0.282   0.273   0.275   0.277   0.277   0.276   0.267   0.271   0.282   0.292   0.288   0.283   0.278   0.287   0.275   0.290   0.295   0.288   0.287   0.287   0.285   0.295   0.289   0.287   0.282   0.279   0.283   0.283   0.275   0.281   0.277   0.282   0.279   0.274   0.274   0.268   0.277   0.283   0.287   0.293   0.282   0.287   0.294   0.281   0.283   0.287   0.289   0.286   0.279   0.281   0.287   0.268   0.273   0.273   0.283   0.275   0.288   0.287   0.282   0.293   0.292   0.296   0.303   0.291   0.296   0.293   0.288   0.285   0.283   0.278   0.280   0.271   0.271   0.280   0.278   0.285   0.283   0.281   0.279   0.280   0.290   0.277   0.271   0.269   0.269   0.280   0.287   0.290   0.282   0.287   0.288   0.277   0.271   0.274   0.280   0.275   0.279   0.288   0.286   0.288   0.275   0.282   0.275   0.277   0.281   0.281   0.278   0.277   0.282   0.276   0.278   0.280   0.281   0.272   0.281   0.277   0.286   0.280   0.283   0.285   0.274   0.283   0.286   0.295   0.297   0.286   0.279   0.269   0.270   0.275   0.276   0.276   0.273   0.281   0.282   0.278   0.272   0.273   0.266   0.269   0.270   0.269   0.284   0.294   0.294   0.299   0.292   0.284   0.280
    28.90    0.287   0.289   0.284   0.298   0.290   0.291   0.282   0.295   0.286   0.300   0.292   0.284   0.272   0.276   0.273   0.279   0.278   0.278   0.282   0.284   0.281   0.293   0.284   0.286   0.286   0.284   0.289   0.283   0.281   0.280   0.285   0.285   0.281   0.269   0.272   0.278   0.283   0.285   0.281   0.276   0.275   0.269   0.276   0.267   0.278   0.283   0.265   0.277   0.279   0.276   0.277   0.282   0.284   0.288   0.289   0.283   0.280   0.275   0.288   0.287   0.290   0.284   0.291   0.290   0.289   0.291   0.292   0.285   0.279   0.276   0.285   0.289   0.276   0.277   0.281   0.279   0.283   0.280   0.271   0.280   0.279   0.286   0.281   0.283   0.286   0.283   0.289   0.280   0.277   0.290   0.293   0.284   0.288   0.284   0.279   0.262   0.274   0.276   0.287   0.287   0.284   0.289   0.290   0.287   0.291   0.292   0.297   0.292   0.288   0.286   0.295   0.290   0.290   0.288   0.291   0.276   0.274   0.276   0.282   0.276   0.284   0.286   0.289   0.281   0.267   0.268   0.279   0.276   0.283   0.284   0.288   0.280   0.270   0.275   0.281   0.279   0.274   0.270   0.278   0.276   0.272   0.272   0.281   0.282   0.266   0.276   0.276   0.276   0.274   0.280   0.292   0.276   0.275   0.278   0.285   0.277   0.283   0.281   0.279   0.283   0.276   0.277   0.285   0.287   0.283   0.286   0.286   0.286   0.299   0.283   0.281   0.273   0.279   0.275   0.277   0.266   0.268   0.276   0.280   0.285   0.279   0.276   0.280   0.283   0.281   0.273   0.276   0.285   0.283   0.289   0.292   0.291   0.283
    19.60    0.275   0.287   0.296   0.299   0.297   0.294   0.294   0.290   0.291   0.300   0.285   0.284   0.265   0.271   0.272   0.277   0.280   0.277   0.278   0.284   0.291   0.282   0.287   0.288   0.292   0.287   0.288   0.283   0.279   0.287   0.279   0.288   0.279   0.282   0.283   0.286   0.279   0.277   0.284   0.288   0.277   0.271   0.268   0.277   0.275   0.275   0.271   0.284   0.280   0.281   0.279   0.279   0.291   0.292   0.279   0.275   0.276   0.283   0.283   0.291   0.285   0.291   0.283   0.295   0.300   0.297   0.282   0.283   0.272   0.277   0.282   0.290   0.278   0.281   0.283   0.279   0.274   0.267   0.280   0.281   0.283   0.282   0.291   0.289   0.280   0.277   0.277   0.290   0.284   0.291   0.286   0.281   0.282   0.276   0.275   0.261   0.265   0.273   0.280   0.281   0.277   0.285   0.286   0.288   0.294   0.278   0.289   0.292   0.290   0.289   0.300   0.305   0.303   0.300   0.284   0.276   0.276   0.271   0.274   0.276   0.284   0.287   0.283   0.275   0.276   0.271   0.274   0.279   0.284   0.291   0.297   0.288   0.280   0.276   0.279   0.276   0.273   0.276   0.276   0.272   0.282   0.278   0.289   0.286   0.274   0.273   0.271   0.280   0.273   0.280   0.282   0.272   0.266   0.268   0.277   0.287   0.272   0.272   0.276   0.280   0.277   0.284   0.286   0.285   0.281   0.280   0.286   0.283   0.291   0.287   0.288   0.278   0.272   0.279   0.274   0.265   0.266   0.272   0.284   0.278   0.284   0.284   0.285   0.283   0.286   0.273   0.272   0.273   0.290   0.282   0.281   0.291   0.290
    10.30    0.288   0.294   0.286   0.295   0.297   0.289   0.304   0.285   0.280   0.285   0.289   0.291   0.276   0.273   0.289   0.281   0.285   0.278   0.284   0.286   0.279   0.279   0.281   0.281   0.287   0.278   0.277   0.282   0.283   0.280   0.291   0.287   0.278   0.284   0.284   0.290   0.278   0.281   0.286   0.288   0.277   0.279   0.276   0.285   0.277   0.275   0.273   0.272   0.274   0.279   0.279   0.282   0.288   0.286   0.290   0.286   0.286   0.289   0.279   0.290   0.298   0.297   0.285   0.296   0.304   0.289   0.284   0.283   0.275   0.275   0.279   0.282   0.282   0.280   0.275   0.274   0.278   0.279   0.287   0.285   0.296   0.293   0.288   0.281   0.287   0.274   0.279   0.296   0.298   0.280   0.294   0.285   0.276   0.281   0.282   0.279   0.281   0.272   0.281   0.282   0.284   0.279   0.289   0.285   0.289   0.297   0.287   0.293   0.280   0.290   0.300   0.303   0.288   0.287   0.292   0.275   0.281   0.278   0.278   0.279   0.285   0.285   0.283   0.272   0.272   0.263   0.269   0.278   0.280   0.285   0.297   0.293   0.290   0.284   0.283   0.279   0.282   0.280   0.282   0.280   0.282   0.281   0.279   0.282   0.280   0.272   0.264   0.266   0.277   0.280   0.276   0.270   0.273   0.277   0.274   0.282   0.271   0.277   0.272   0.285   0.286   0.283   0.281   0.294   0.287   0.279   0.275   0.286   0.291   0.285   0.277   0.278   0.271   0.275   0.279   0.278   0.276   0.278   0.270   0.273   0.287   0.295   0.277   0.278   0.280   0.285   0.282   0.276   0.277   0.284   0.291   0.291   0.293
     1.00    0.284   0.289   0.290   0.290   0.297   0.294   0.296   0.291   0.283   0.283   0.280   0.293   0.288   0.288   0.289   0.296   0.298   0.291   0.282   0.283   0.270   0.275   0.284   0.291   0.286   0.279   0.281   0.279   0.288   0.280   0.280   0.287   0.273   0.289   0.289   0.282   0.284   0.283   0.287   0.283   0.278   0.282   0.282   0.283   0.276   0.270   0.270   0.273   0.280   0.275   0.280   0.271   0.281   0.278   0.277   0.289   0.290   0.292   0.290   0.281   0.293   0.283   0.283   0.284   0.296   0.296   0.282   0.279   0.275   0.276   0.271   0.282   0.282   0.291   0.284   0.283   0.289   0.293   0.285   0.287   0.292   0.303   0.297   0.291   0.292   0.284   0.291   0.296   0.301   0.288   0.286   0.293   0.295   0.284   0.288   0.289   0.284   0.283   0.276   0.279   0.288   0.290   0.288   0.291   0.285   0.287   0.290   0.293   0.288   0.292   0.289   0.293   0.291   0.289   0.291   0.288   0.293   0.282   0.276   0.271   0.281   0.285   0.278   0.278   0.278   0.283   0.289   0.290   0.283   0.290   0.293   0.284   0.283   0.283   0.294   0.287   0.285   0.285   0.284   0.283   0.269   0.276   0.277   0.276   0.276   0.269   0.262   0.267   0.276   0.281   0.281   0.279   0.284   0.279   0.273   0.273   0.273   0.275   0.280   0.282   0.283   0.277   0.281   0.281   0.285   0.277   0.273   0.273   0.275   0.279   0.272   0.268   0.273   0.269   0.281   0.278   0.272   0.274   0.271   0.271   0.287   0.295   0.287   0.277   0.282   0.274   0.280   0.281   0.283   0.286   0.288   0.288   0.294

   Mean standard deviation across all grid points:
      u component:    0.566 m/s
      v component:    0.471 m/s
      w component:    0.284 m/s


U-component (X) statistics from the interpolated hub point:

   Mean =   9.7063 m/s
   TI   =   6.4316 %


Processing complete.  2.14815E+05 CPU seconds used.
