
This summary file was generated by TurbSim (from OpenFAST-v3.5.3) on 20-Apr-2025 at 08:25:52.


Runtime Options:

**********  Random seed #1
    RANLUX  Type of random number generator
         F  Output binary HH turbulence parameters?
         F  Output formatted turbulence parameters?
         F  Output AeroDyn HH files?
         T  Output AeroDyn FF files?
         F  Output BLADED FF files?
         F  Output tower data?
         F  Output HAWC FF files?
         F  Output formatted FF files?
         T  Output coherent turbulence time step file?
 0 -  NONE  IEC turbulence models scaled to exact specified standard deviation


Turbine/Model Specifications:

        37  Vertical grid-point matrix dimension
        35  Horizontal grid-point matrix dimension
     0.250  Time step [seconds]
   900.000  Analysis time [seconds]
   900.000  Usable output time [seconds]
    89.350  Hub height [m]
   167.400  Grid height [m]
   158.100  Grid width [m]
     0.000  Vertical flow angle [degrees]
     0.000  Horizontal flow angle [degrees]


Meteorological Boundary Conditions:

    TIMESR  User-input time series spectral model
       N/A  IEC standard
       N/A  IEC turbulence characteristic
       N/A  IEC turbulence type
       N/A  IEC Extreme Turbulence Model (ETM) "c" parameter [m/s]
       PL   Wind profile type
    90.000  Reference height [m]
    10.000  Reference wind speed [m/s]
       N/A  Jet height [m]
     0.120  Power law exponent
     0.030  Surface roughness length [m]


Non-IEC Meteorological Boundary Conditions:

    45.000  Site latitude [degrees]
     0.050  Gradient Richardson number
     0.480  Friction or shear velocity [m/s]
       N/A  Mixing layer depth [m]
       N/A  Mean hub u'w' Reynolds stress
       N/A  Mean hub u'v' Reynolds stress
       N/A  Mean hub v'w' Reynolds stress


Spatial Coherence Models:

       IEC  u-component coherence model
       IEC  v-component coherence model
       IEC  w-component coherence model
(   12.000, 0.353E-03)  u-component coherence parameters
(   12.000, 0.353E-03)  v-component coherence parameters
(   12.000, 0.353E-03)  w-component coherence parameters
       N/A  Coherence exponent


Coherent Turbulence Scaling Parameters:

.\EventData
            Name of the path containing the coherent turbulence data files
       dns  Type of coherent turbulence data files
     1.000  Disturbance scale (ratio of wave height to rotor diameter)
     0.500  Fractional location of tower centerline from right
     0.500  Fractional location of hub height from the bottom of the dataset
    30.000  Minimum start time for coherent structures [seconds]


Profiles from User-Defined Time-Series Input:

  Height   Wind Speed   Horizontal Angle   Vertical Angle
   (m)        (m/s)          (deg)              (deg)    
  ------   ----------   ----------------   --------------
   94.00      10.00          -0.63                0.00


You have requested that the following file(s) be generated:

   /kfs3/scratch/agupta/Projects/RL_Incubator/FinalRuns_Veer/Seed4/./FFSim_Seed4/Cond00_v10.0_PL0.12_TI4.0/Case2_wdirp04/Seed_3/TurbSim/HighT9.bts (AeroDyn/TurbSim full-field wind file)


Turbulence Simulation Scaling Parameter Summary:

   Turbulence model used                            =  User-input time series
   Gradient Richardson number                       =    0.050
   Monin-Obukhov (M-O) z/L parameter                =    0.067
   Monin-Obukhov (M-O) length scale                 = 1340.250 m
   Mean wind speed at hub height                    =    9.991 m/s

   Wind profile type                                =  Power law
   Power law exponent                               =    0.120
   Mean shear across rotor disk                     =    0.019 (m/s)/m
   Assumed rotor diameter                           =  158.100 m
   Surface roughness length                         =    0.030 m

   Nyquist frequency of turbulent wind field        =    2.000 Hz

   Number of time steps in the FFT                  =     3600
   Number of time steps output                      =     3600
   Number of points simulated                       =     1296


Mean Flow Angles:

   Vertical   =   0.0 degrees
   Horizontal =   0.0 degrees

Mean Wind Speed Profile:

   Height    Wind Speed   Horizontal Angle  Vertical Angle  U-comp (X)   V-comp (Y)   W-comp (Z)
     (m)        (m/s)         (degrees)       (degrees)       (m/s)        (m/s)        (m/s)   
   ------    ----------   ----------------  --------------  ----------   ----------   ----------
    168.4       10.78            0.00            0.00         10.78         0.00         0.00
    163.7       10.74            0.00            0.00         10.74         0.00         0.00
    159.1       10.71            0.00            0.00         10.71         0.00         0.00
    154.4       10.67            0.00            0.00         10.67         0.00         0.00
    149.8       10.63            0.00            0.00         10.63         0.00         0.00
    145.1       10.59            0.00            0.00         10.59         0.00         0.00
    140.5       10.55            0.00            0.00         10.55         0.00         0.00
    135.8       10.51            0.00            0.00         10.51         0.00         0.00
    131.2       10.46            0.00            0.00         10.46         0.00         0.00
    126.5       10.42            0.00            0.00         10.42         0.00         0.00
    121.9       10.37            0.00            0.00         10.37         0.00         0.00
    117.2       10.32            0.00            0.00         10.32         0.00         0.00
    112.6       10.27            0.00            0.00         10.27         0.00         0.00
    107.9       10.22            0.00            0.00         10.22         0.00         0.00
    103.3       10.17            0.00            0.00         10.17         0.00         0.00
     98.6       10.11            0.00            0.00         10.11         0.00         0.00
     94.0       10.05            0.00            0.00         10.05         0.00         0.00
     89.3        9.99            0.00            0.00          9.99         0.00         0.00
     84.7        9.93            0.00            0.00          9.93         0.00         0.00
     80.0        9.86            0.00            0.00          9.86         0.00         0.00
     75.4        9.79            0.00            0.00          9.79         0.00         0.00
     70.7        9.72            0.00            0.00          9.72         0.00         0.00
     66.1        9.64            0.00            0.00          9.64         0.00         0.00
     61.4        9.55            0.00            0.00          9.55         0.00         0.00
     56.8        9.46            0.00            0.00          9.46         0.00         0.00
     52.1        9.37            0.00            0.00          9.37         0.00         0.00
     47.5        9.26            0.00            0.00          9.26         0.00         0.00
     42.8        9.15            0.00            0.00          9.15         0.00         0.00
     38.2        9.02            0.00            0.00          9.02         0.00         0.00
     33.5        8.88            0.00            0.00          8.88         0.00         0.00
     28.9        8.73            0.00            0.00          8.73         0.00         0.00
     24.2        8.54            0.00            0.00          8.54         0.00         0.00
     19.6        8.33            0.00            0.00          8.33         0.00         0.00
     14.9        8.06            0.00            0.00          8.06         0.00         0.00
     10.3        7.71            0.00            0.00          7.71         0.00         0.00
      5.6        7.17            0.00            0.00          7.17         0.00         0.00
      1.0        5.83            0.00            0.00          5.83         0.00         0.00


Harvested Random Seeds after Generation of the Random Numbers:

     65026800 K 1
            0 K 2


Hub-Height Simulated Turbulence Statistical Summary:

   Type of Wind        Min (m/s)   Mean (m/s)    Max (m/s)  Sigma (m/s)       TI (%)
   ----------------    ---------   ----------    ---------  -----------       ------
   Longitudinal (u)         8.87         9.99        11.63        0.475        4.758
   Lateral (v)             -0.94         0.00         1.17        0.354        3.543
   Vertical (w)            -0.75        -0.00         0.62        0.186        1.865
   U component              8.87         9.99        11.63        0.475        4.758
   V component             -0.94         0.00         1.17        0.354        3.543
   W component             -0.75        -0.00         0.62        0.186        1.865
   Horizontal (U&V)         8.88        10.00        11.63        0.475        4.749
   Total                    8.88        10.00        11.63        0.475        4.749

                       Min Reynolds     Mean Reynolds    Max Reynolds    Correlation
   Product             Stress (m/s)^2   Stress (m/s)^2   Stress (m/s)^2  Coefficient
   ----------------    --------------   --------------   --------------  -----------
   u'w'                     -0.596            -0.011             0.487        -0.122
   u'v'                     -0.717            -0.030             0.844        -0.176
   v'w'                     -0.419             0.007             0.401         0.099


   Friction Velocity (Ustar)  =      0.104 m/s
   Maximum Instantaneous TKE  =      1.363 (m/s)^2
   Maximum Instantaneous CTKE =      0.426 (m/s)^2


Grid Point Variance Summary:

   Y-coord  -79.05  -74.40  -69.75  -65.10  -60.45  -55.80  -51.15  -46.50  -41.85  -37.20  -32.55  -27.90  -23.25  -18.60  -13.95   -9.30   -4.65    0.00    4.65    9.30   13.95   18.60   23.25   27.90   32.55   37.20   41.85   46.50   51.15   55.80   60.45   65.10   69.75   74.40   79.05

   Height   Standard deviation at grid points for the u component:
   168.40    0.470   0.482   0.464   0.543   0.545   0.575   0.601   0.601   0.562   0.540   0.549   0.529   0.454   0.447   0.438   0.406   0.431   0.428   0.387   0.402   0.396   0.437   0.481   0.488   0.455   0.491   0.500   0.501   0.489   0.472   0.491   0.513   0.545   0.544   0.590
   163.75    0.488   0.507   0.520   0.542   0.527   0.578   0.585   0.570   0.536   0.545   0.523   0.498   0.459   0.442   0.395   0.390   0.404   0.419   0.365   0.381   0.449   0.451   0.460   0.450   0.460   0.514   0.520   0.488   0.480   0.513   0.554   0.539   0.549   0.565   0.588
   159.10    0.502   0.464   0.490   0.512   0.532   0.584   0.568   0.530   0.530   0.547   0.527   0.471   0.519   0.472   0.448   0.440   0.408   0.380   0.376   0.414   0.462   0.468   0.514   0.511   0.452   0.505   0.538   0.493   0.487   0.506   0.542   0.567   0.517   0.550   0.556
   154.45    0.461   0.472   0.511   0.550   0.563   0.588   0.579   0.575   0.518   0.524   0.515   0.487   0.510   0.517   0.463   0.440   0.396   0.396   0.385   0.414   0.475   0.473   0.514   0.524   0.481   0.482   0.527   0.521   0.511   0.525   0.570   0.585   0.529   0.546   0.529
   149.80    0.477   0.501   0.459   0.515   0.551   0.527   0.575   0.544   0.503   0.489   0.503   0.470   0.514   0.485   0.479   0.430   0.412   0.404   0.434   0.402   0.460   0.490   0.536   0.506   0.486   0.498   0.497   0.536   0.512   0.575   0.611   0.577   0.530   0.537   0.528
   145.15    0.531   0.492   0.485   0.493   0.546   0.584   0.562   0.576   0.541   0.492   0.502   0.476   0.506   0.470   0.473   0.427   0.429   0.443   0.420   0.409   0.486   0.500   0.550   0.513   0.495   0.514   0.477   0.501   0.497   0.566   0.591   0.595   0.531   0.548   0.521
   140.50    0.551   0.521   0.545   0.509   0.532   0.534   0.569   0.572   0.539   0.493   0.464   0.441   0.444   0.432   0.450   0.408   0.447   0.461   0.449   0.453   0.508   0.505   0.534   0.499   0.504   0.505   0.492   0.478   0.486   0.581   0.564   0.552   0.553   0.514   0.522
   135.85    0.591   0.534   0.547   0.533   0.487   0.505   0.543   0.542   0.486   0.467   0.427   0.406   0.412   0.406   0.433   0.427   0.474   0.492   0.470   0.488   0.512   0.551   0.519   0.505   0.517   0.516   0.551   0.540   0.536   0.580   0.617   0.591   0.584   0.536   0.521
   131.20    0.580   0.519   0.545   0.482   0.492   0.496   0.495   0.523   0.503   0.449   0.415   0.416   0.378   0.426   0.437   0.493   0.471   0.475   0.469   0.472   0.478   0.527   0.541   0.546   0.555   0.607   0.583   0.580   0.544   0.564   0.572   0.554   0.554   0.514   0.557
   126.55    0.558   0.510   0.522   0.491   0.471   0.501   0.500   0.506   0.533   0.451   0.436   0.409   0.408   0.454   0.478   0.471   0.470   0.427   0.461   0.509   0.539   0.551   0.550   0.548   0.572   0.618   0.608   0.547   0.568   0.576   0.517   0.553   0.528   0.526   0.577
   121.90    0.543   0.543   0.568   0.527   0.531   0.503   0.484   0.495   0.511   0.459   0.425   0.437   0.455   0.473   0.475   0.434   0.410   0.402   0.447   0.474   0.513   0.536   0.536   0.529   0.592   0.607   0.607   0.589   0.546   0.539   0.522   0.564   0.580   0.560   0.567
   117.25    0.578   0.576   0.547   0.556   0.526   0.502   0.526   0.504   0.518   0.472   0.453   0.410   0.479   0.467   0.468   0.462   0.408   0.391   0.444   0.481   0.505   0.506   0.541   0.519   0.589   0.633   0.575   0.600   0.602   0.565   0.566   0.580   0.598   0.533   0.540
   112.60    0.560   0.549   0.563   0.585   0.564   0.514   0.546   0.516   0.537   0.521   0.488   0.484   0.506   0.503   0.479   0.451   0.441   0.429   0.417   0.463   0.477   0.468   0.511   0.527   0.603   0.620   0.580   0.574   0.575   0.625   0.619   0.603   0.578   0.527   0.544
   107.95    0.517   0.545   0.559   0.574   0.581   0.546   0.536   0.511   0.516   0.525   0.481   0.468   0.493   0.478   0.459   0.463   0.501   0.453   0.434   0.476   0.489   0.497   0.534   0.582   0.612   0.616   0.581   0.559   0.606   0.592   0.613   0.582   0.570   0.540   0.500
   103.30    0.520   0.543   0.500   0.551   0.531   0.521   0.491   0.487   0.489   0.466   0.449   0.486   0.479   0.474   0.463   0.441   0.457   0.420   0.467   0.509   0.526   0.499   0.520   0.560   0.596   0.595   0.552   0.573   0.577   0.582   0.557   0.597   0.561   0.506   0.537
    98.65    0.554   0.535   0.546   0.546   0.512   0.479   0.464   0.444   0.461   0.412   0.435   0.481   0.508   0.464   0.434   0.452   0.433   0.457   0.473   0.493   0.514   0.522   0.563   0.548   0.563   0.595   0.548   0.539   0.554   0.556   0.530   0.546   0.576   0.526   0.543
    94.00    0.535   0.552   0.564   0.563   0.540   0.481   0.523   0.502   0.479   0.428   0.394   0.454   0.455   0.463   0.451   0.454   0.432   0.440   0.474   0.525   0.538   0.584   0.552   0.515   0.551   0.558   0.562   0.560   0.562   0.523   0.538   0.481   0.520   0.552   0.548
    89.35    0.540   0.545   0.539   0.528   0.525   0.491   0.532   0.482   0.482   0.465   0.412   0.436   0.433   0.424   0.449   0.449   0.438   0.475   0.484   0.514   0.559   0.590   0.555   0.524   0.539   0.529   0.526   0.523   0.503   0.556   0.528   0.495   0.489   0.536   0.567
    84.70    0.569   0.550   0.494   0.483   0.486   0.515   0.524   0.505   0.472   0.467   0.442   0.407   0.468   0.457   0.460   0.469   0.475   0.457   0.515   0.518   0.555   0.585   0.589   0.549   0.540   0.547   0.578   0.584   0.518   0.562   0.532   0.520   0.535   0.561   0.555
    80.05    0.557   0.509   0.479   0.503   0.510   0.513   0.500   0.509   0.487   0.451   0.457   0.447   0.455   0.498   0.478   0.448   0.501   0.534   0.545   0.504   0.546   0.564   0.558   0.585   0.571   0.555   0.588   0.558   0.512   0.574   0.581   0.564   0.575   0.565   0.533
    75.40    0.551   0.509   0.518   0.524   0.505   0.484   0.489   0.471   0.469   0.487   0.491   0.477   0.487   0.520   0.516   0.470   0.517   0.567   0.584   0.527   0.526   0.535   0.580   0.556   0.555   0.585   0.564   0.572   0.518   0.532   0.584   0.571   0.604   0.557   0.520
    70.75    0.515   0.495   0.523   0.576   0.561   0.505   0.493   0.460   0.466   0.486   0.487   0.481   0.523   0.547   0.519   0.470   0.496   0.536   0.588   0.573   0.561   0.582   0.617   0.539   0.559   0.557   0.555   0.505   0.513   0.537   0.559   0.581   0.597   0.549   0.550
    66.10    0.491   0.511   0.574   0.576   0.569   0.515   0.519   0.508   0.493   0.453   0.443   0.484   0.494   0.539   0.556   0.519   0.500   0.506   0.567   0.600   0.619   0.611   0.600   0.561   0.531   0.570   0.520   0.482   0.521   0.540   0.511   0.579   0.606   0.568   0.512
    61.45    0.499   0.527   0.577   0.551   0.548   0.557   0.508   0.486   0.462   0.437   0.419   0.417   0.469   0.530   0.570   0.550   0.518   0.544   0.567   0.605   0.583   0.571   0.561   0.576   0.542   0.560   0.546   0.512   0.486   0.517   0.538   0.564   0.607   0.538   0.470
    56.80    0.533   0.509   0.571   0.598   0.555   0.578   0.506   0.488   0.497   0.450   0.439   0.455   0.474   0.491   0.525   0.555   0.540   0.543   0.547   0.559   0.586   0.627   0.604   0.612   0.553   0.538   0.555   0.549   0.522   0.490   0.474   0.550   0.587   0.533   0.482
    52.15    0.542   0.492   0.543   0.579   0.559   0.566   0.516   0.532   0.479   0.468   0.448   0.430   0.472   0.476   0.491   0.509   0.543   0.551   0.573   0.600   0.594   0.613   0.610   0.583   0.514   0.539   0.507   0.509   0.484   0.521   0.501   0.535   0.557   0.524   0.495
    47.50    0.522   0.496   0.496   0.551   0.544   0.545   0.536   0.517   0.519   0.488   0.461   0.469   0.440   0.462   0.472   0.502   0.496   0.548   0.595   0.569   0.558   0.585   0.584   0.536   0.483   0.483   0.483   0.457   0.467   0.496   0.520   0.538   0.522   0.548   0.540
    42.85    0.587   0.533   0.578   0.582   0.554   0.528   0.525   0.534   0.476   0.480   0.492   0.497   0.450   0.448   0.505   0.508   0.512   0.552   0.573   0.571   0.562   0.551   0.539   0.533   0.464   0.441   0.404   0.441   0.504   0.479   0.480   0.484   0.512   0.507   0.514
    38.20    0.565   0.554   0.587   0.556   0.576   0.591   0.573   0.529   0.514   0.506   0.494   0.481   0.461   0.494   0.506   0.503   0.537   0.558   0.599   0.530   0.551   0.498   0.490   0.507   0.496   0.416   0.406   0.441   0.498   0.475   0.482   0.478   0.522   0.520   0.480
    33.55    0.594   0.587   0.584   0.552   0.593   0.580   0.608   0.564   0.513   0.553   0.547   0.530   0.535   0.526   0.525   0.515   0.570   0.587   0.568   0.547   0.547   0.534   0.522   0.516   0.457   0.449   0.438   0.421   0.470   0.510   0.504   0.504   0.525   0.513   0.515
    28.90    0.576   0.529   0.514   0.549   0.565   0.538   0.555   0.575   0.546   0.559   0.524   0.502   0.538   0.558   0.519   0.519   0.566   0.569   0.574   0.539   0.489   0.535   0.561   0.532   0.492   0.465   0.492   0.460   0.474   0.488   0.484   0.509   0.475   0.485   0.469
    24.25    0.572   0.546   0.523   0.515   0.584   0.510   0.504   0.552   0.564   0.571   0.544   0.571   0.536   0.537   0.511   0.542   0.522   0.581   0.601   0.573   0.539   0.510   0.557   0.553   0.541   0.519   0.498   0.513   0.484   0.471   0.433   0.455   0.459   0.452   0.455
    19.60    0.540   0.498   0.524   0.549   0.556   0.524   0.541   0.533   0.568   0.578   0.577   0.542   0.515   0.486   0.508   0.516   0.542   0.571   0.566   0.560   0.551   0.572   0.569   0.587   0.597   0.574   0.536   0.531   0.526   0.468   0.423   0.462   0.438   0.447   0.500
    14.95    0.524   0.501   0.502   0.485   0.524   0.567   0.525   0.548   0.528   0.540   0.574   0.575   0.565   0.486   0.498   0.476   0.469   0.497   0.523   0.550   0.577   0.599   0.588   0.529   0.535   0.567   0.575   0.530   0.559   0.488   0.443   0.438   0.467   0.460   0.498
    10.30    0.505   0.470   0.483   0.499   0.549   0.562   0.560   0.532   0.519   0.488   0.538   0.522   0.505   0.475   0.463   0.448   0.463   0.469   0.483   0.543   0.560   0.576   0.506   0.530   0.509   0.537   0.545   0.546   0.513   0.511   0.432   0.400   0.413   0.470   0.520
     5.65    0.512   0.468   0.455   0.487   0.499   0.503   0.480   0.482   0.463   0.477   0.500   0.449   0.473   0.443   0.438   0.438   0.405   0.461   0.503   0.523   0.518   0.548   0.473   0.508   0.545   0.501   0.506   0.525   0.477   0.463   0.428   0.417   0.429   0.466   0.509
     1.00    0.472   0.481   0.444   0.466   0.442   0.464   0.446   0.456   0.442   0.455   0.468   0.467   0.448   0.441   0.390   0.377   0.395   0.426   0.443   0.459   0.474   0.498   0.453   0.479   0.528   0.489   0.502   0.474   0.438   0.423   0.444   0.463   0.465   0.453   0.453

   Height   Standard deviation at grid points for the v component:
   168.40    0.310   0.316   0.319   0.329   0.331   0.336   0.339   0.350   0.353   0.372   0.359   0.333   0.349   0.342   0.355   0.348   0.340   0.343   0.361   0.382   0.381   0.373   0.364   0.355   0.360   0.348   0.346   0.347   0.345   0.355   0.335   0.342   0.324   0.317   0.326
   163.75    0.310   0.293   0.303   0.310   0.316   0.330   0.340   0.355   0.351   0.354   0.351   0.354   0.352   0.343   0.349   0.359   0.364   0.350   0.362   0.380   0.388   0.373   0.360   0.351   0.338   0.346   0.342   0.354   0.362   0.361   0.340   0.327   0.318   0.326   0.323
   159.10    0.313   0.304   0.329   0.322   0.324   0.336   0.344   0.346   0.356   0.354   0.360   0.362   0.341   0.347   0.345   0.348   0.376   0.362   0.349   0.367   0.371   0.365   0.362   0.347   0.332   0.319   0.332   0.346   0.350   0.349   0.323   0.317   0.324   0.308   0.303
   154.45    0.331   0.318   0.345   0.343   0.334   0.323   0.347   0.359   0.352   0.345   0.347   0.350   0.342   0.353   0.354   0.358   0.377   0.364   0.390   0.365   0.369   0.367   0.350   0.350   0.324   0.314   0.321   0.331   0.335   0.330   0.314   0.322   0.316   0.311   0.310
   149.80    0.336   0.335   0.333   0.353   0.338   0.355   0.347   0.359   0.362   0.349   0.339   0.347   0.347   0.346   0.355   0.360   0.375   0.380   0.373   0.370   0.379   0.357   0.351   0.348   0.336   0.328   0.301   0.315   0.310   0.304   0.311   0.303   0.302   0.311   0.309
   145.15    0.352   0.343   0.332   0.340   0.359   0.361   0.359   0.353   0.363   0.345   0.351   0.353   0.337   0.339   0.337   0.361   0.372   0.371   0.369   0.358   0.363   0.346   0.346   0.328   0.329   0.314   0.301   0.306   0.322   0.315   0.299   0.299   0.302   0.317   0.311
   140.50    0.369   0.358   0.357   0.366   0.365   0.354   0.362   0.347   0.362   0.368   0.353   0.349   0.334   0.337   0.338   0.360   0.369   0.361   0.331   0.346   0.343   0.317   0.324   0.313   0.310   0.299   0.306   0.320   0.306   0.303   0.300   0.307   0.305   0.324   0.312
   135.85    0.361   0.370   0.365   0.374   0.364   0.354   0.356   0.341   0.334   0.340   0.355   0.354   0.331   0.337   0.339   0.344   0.360   0.349   0.337   0.334   0.316   0.313   0.321   0.294   0.311   0.311   0.307   0.302   0.304   0.299   0.289   0.290   0.296   0.298   0.306
   131.20    0.344   0.373   0.361   0.372   0.359   0.343   0.370   0.351   0.329   0.328   0.334   0.337   0.347   0.341   0.331   0.326   0.341   0.334   0.323   0.316   0.317   0.317   0.310   0.295   0.290   0.299   0.303   0.298   0.287   0.299   0.292   0.300   0.302   0.291   0.305
   126.55    0.344   0.354   0.355   0.361   0.363   0.340   0.342   0.338   0.311   0.320   0.321   0.325   0.322   0.310   0.322   0.324   0.321   0.318   0.321   0.318   0.317   0.308   0.308   0.303   0.303   0.310   0.308   0.311   0.310   0.307   0.297   0.276   0.302   0.310   0.321
   121.90    0.343   0.325   0.348   0.352   0.350   0.344   0.341   0.335   0.323   0.315   0.321   0.317   0.328   0.316   0.319   0.324   0.317   0.328   0.332   0.329   0.298   0.313   0.307   0.300   0.301   0.299   0.285   0.283   0.308   0.319   0.302   0.304   0.292   0.303   0.319
   117.25    0.344   0.341   0.354   0.345   0.341   0.343   0.335   0.345   0.324   0.307   0.329   0.322   0.320   0.330   0.317   0.310   0.312   0.319   0.330   0.315   0.303   0.311   0.310   0.301   0.295   0.279   0.282   0.286   0.302   0.307   0.303   0.290   0.292   0.297   0.291
   112.60    0.354   0.343   0.351   0.372   0.340   0.322   0.324   0.314   0.316   0.319   0.333   0.324   0.325   0.317   0.318   0.309   0.305   0.317   0.314   0.311   0.300   0.305   0.292   0.298   0.297   0.275   0.278   0.294   0.304   0.328   0.315   0.299   0.303   0.307   0.303
   107.95    0.358   0.350   0.356   0.352   0.346   0.343   0.325   0.306   0.297   0.316   0.325   0.335   0.336   0.325   0.324   0.324   0.302   0.315   0.319   0.306   0.311   0.302   0.292   0.288   0.294   0.286   0.292   0.320   0.321   0.324   0.320   0.317   0.321   0.330   0.321
   103.30    0.361   0.355   0.345   0.351   0.351   0.355   0.338   0.309   0.305   0.319   0.314   0.332   0.335   0.339   0.324   0.331   0.315   0.326   0.320   0.329   0.308   0.297   0.289   0.297   0.301   0.301   0.306   0.309   0.317   0.321   0.321   0.325   0.314   0.314   0.304
    98.65    0.368   0.361   0.360   0.370   0.345   0.348   0.321   0.308   0.298   0.315   0.323   0.335   0.338   0.341   0.333   0.333   0.323   0.316   0.319   0.336   0.328   0.302   0.302   0.288   0.300   0.291   0.301   0.307   0.317   0.325   0.314   0.304   0.317   0.307   0.298
    94.00    0.357   0.354   0.348   0.347   0.346   0.341   0.328   0.303   0.294   0.304   0.314   0.321   0.346   0.349   0.325   0.335   0.326   0.324   0.333   0.345   0.330   0.322   0.323   0.318   0.303   0.289   0.301   0.328   0.336   0.329   0.321   0.313   0.304   0.310   0.307
    89.35    0.322   0.342   0.342   0.328   0.331   0.323   0.328   0.304   0.311   0.311   0.310   0.310   0.328   0.335   0.315   0.330   0.349   0.354   0.357   0.333   0.326   0.327   0.329   0.322   0.312   0.311   0.315   0.336   0.333   0.337   0.331   0.320   0.326   0.322   0.312
    84.70    0.323   0.342   0.329   0.302   0.315   0.325   0.327   0.326   0.327   0.298   0.305   0.323   0.328   0.324   0.328   0.332   0.339   0.362   0.361   0.347   0.324   0.337   0.338   0.334   0.318   0.317   0.331   0.337   0.336   0.340   0.331   0.331   0.326   0.321   0.320
    80.05    0.356   0.335   0.320   0.312   0.306   0.314   0.316   0.301   0.320   0.306   0.300   0.312   0.335   0.340   0.327   0.326   0.349   0.360   0.361   0.337   0.333   0.338   0.342   0.335   0.306   0.328   0.331   0.342   0.341   0.336   0.336   0.342   0.327   0.338   0.341
    75.40    0.357   0.350   0.328   0.331   0.307   0.296   0.321   0.314   0.313   0.326   0.301   0.300   0.319   0.321   0.312   0.324   0.342   0.341   0.355   0.347   0.327   0.328   0.332   0.331   0.324   0.315   0.321   0.327   0.325   0.346   0.348   0.343   0.324   0.338   0.343
    70.75    0.357   0.345   0.326   0.315   0.312   0.312   0.313   0.313   0.327   0.309   0.320   0.308   0.312   0.328   0.326   0.337   0.348   0.346   0.349   0.341   0.329   0.320   0.329   0.337   0.326   0.311   0.301   0.311   0.341   0.341   0.348   0.344   0.335   0.342   0.356
    66.10    0.348   0.323   0.319   0.325   0.306   0.304   0.320   0.327   0.324   0.312   0.300   0.301   0.306   0.310   0.330   0.324   0.349   0.347   0.362   0.345   0.332   0.332   0.326   0.333   0.327   0.324   0.322   0.318   0.325   0.312   0.311   0.327   0.331   0.336   0.342
    61.45    0.336   0.323   0.331   0.310   0.290   0.297   0.303   0.307   0.323   0.312   0.299   0.285   0.307   0.314   0.343   0.335   0.359   0.334   0.359   0.348   0.347   0.344   0.340   0.337   0.331   0.328   0.327   0.315   0.328   0.321   0.313   0.328   0.339   0.335   0.343
    56.80    0.333   0.345   0.329   0.315   0.292   0.287   0.301   0.296   0.295   0.316   0.305   0.313   0.315   0.321   0.322   0.336   0.346   0.343   0.347   0.357   0.360   0.358   0.353   0.346   0.354   0.350   0.334   0.328   0.328   0.325   0.310   0.328   0.345   0.354   0.349
    52.15    0.320   0.317   0.323   0.317   0.320   0.299   0.297   0.284   0.302   0.303   0.317   0.307   0.321   0.308   0.326   0.328   0.321   0.340   0.340   0.336   0.351   0.354   0.343   0.353   0.349   0.352   0.346   0.333   0.332   0.323   0.330   0.340   0.347   0.358   0.342
    47.50    0.333   0.308   0.304   0.301   0.305   0.297   0.300   0.287   0.291   0.293   0.321   0.325   0.345   0.336   0.321   0.327   0.325   0.337   0.330   0.339   0.349   0.338   0.354   0.362   0.360   0.352   0.363   0.351   0.346   0.352   0.354   0.332   0.328   0.339   0.350
    42.85    0.319   0.326   0.322   0.328   0.302   0.302   0.308   0.297   0.312   0.309   0.325   0.326   0.343   0.356   0.313   0.311   0.336   0.332   0.353   0.359   0.353   0.339   0.368   0.362   0.353   0.351   0.355   0.365   0.366   0.376   0.370   0.346   0.336   0.339   0.329
    38.20    0.330   0.317   0.311   0.313   0.311   0.298   0.303   0.303   0.311   0.318   0.324   0.317   0.327   0.333   0.327   0.313   0.320   0.349   0.365   0.359   0.361   0.338   0.352   0.363   0.351   0.345   0.337   0.373   0.367   0.369   0.363   0.349   0.351   0.352   0.348
    33.55    0.334   0.306   0.308   0.305   0.295   0.299   0.308   0.299   0.320   0.319   0.339   0.325   0.335   0.334   0.322   0.322   0.347   0.342   0.350   0.366   0.345   0.333   0.339   0.343   0.328   0.321   0.351   0.356   0.348   0.354   0.358   0.348   0.341   0.345   0.351
    28.90    0.324   0.312   0.307   0.310   0.295   0.309   0.293   0.301   0.317   0.315   0.330   0.333   0.341   0.355   0.353   0.337   0.352   0.354   0.346   0.345   0.345   0.343   0.335   0.336   0.333   0.333   0.351   0.358   0.327   0.338   0.338   0.334   0.335   0.345   0.352
    24.25    0.308   0.320   0.310   0.306   0.312   0.321   0.320   0.322   0.321   0.328   0.333   0.324   0.343   0.352   0.341   0.352   0.355   0.349   0.342   0.337   0.329   0.332   0.347   0.346   0.337   0.343   0.341   0.354   0.339   0.347   0.339   0.336   0.346   0.345   0.354
    19.60    0.314   0.311   0.312   0.292   0.301   0.305   0.316   0.313   0.333   0.316   0.326   0.330   0.344   0.351   0.351   0.356   0.357   0.347   0.332   0.325   0.328   0.329   0.337   0.333   0.337   0.324   0.333   0.341   0.353   0.355   0.353   0.354   0.335   0.334   0.344
    14.95    0.312   0.319   0.304   0.301   0.304   0.327   0.321   0.321   0.326   0.318   0.328   0.340   0.342   0.351   0.343   0.355   0.358   0.351   0.339   0.329   0.342   0.318   0.319   0.312   0.309   0.326   0.323   0.330   0.337   0.354   0.353   0.339   0.330   0.335   0.344
    10.30    0.319   0.305   0.308   0.313   0.321   0.313   0.327   0.327   0.347   0.323   0.314   0.331   0.345   0.346   0.329   0.338   0.362   0.345   0.333   0.336   0.348   0.329   0.308   0.310   0.317   0.298   0.300   0.326   0.328   0.342   0.346   0.327   0.352   0.347   0.352
     5.65    0.306   0.311   0.296   0.299   0.309   0.314   0.320   0.324   0.326   0.318   0.327   0.325   0.334   0.320   0.319   0.321   0.339   0.342   0.332   0.332   0.320   0.339   0.317   0.325   0.317   0.320   0.323   0.320   0.324   0.337   0.342   0.352   0.356   0.368   0.373
     1.00    0.303   0.291   0.305   0.298   0.291   0.310   0.301   0.304   0.317   0.324   0.318   0.329   0.323   0.338   0.318   0.321   0.326   0.334   0.327   0.338   0.328   0.328   0.330   0.339   0.328   0.322   0.339   0.324   0.346   0.348   0.342   0.356   0.363   0.386   0.385

   Height   Standard deviation at grid points for the w component:
   168.40    0.190   0.189   0.187   0.189   0.183   0.195   0.195   0.193   0.198   0.190   0.186   0.194   0.182   0.181   0.184   0.184   0.189   0.195   0.198   0.195   0.195   0.188   0.194   0.196   0.190   0.197   0.192   0.191   0.185   0.181   0.183   0.184   0.189   0.190   0.185
   163.75    0.187   0.187   0.180   0.183   0.185   0.192   0.188   0.186   0.184   0.188   0.181   0.187   0.183   0.182   0.184   0.188   0.199   0.193   0.190   0.191   0.191   0.189   0.192   0.197   0.195   0.192   0.193   0.188   0.184   0.177   0.187   0.192   0.190   0.193   0.192
   159.10    0.188   0.185   0.179   0.184   0.186   0.185   0.186   0.187   0.183   0.180   0.183   0.191   0.186   0.189   0.188   0.192   0.193   0.187   0.192   0.197   0.205   0.194   0.189   0.195   0.196   0.197   0.197   0.193   0.191   0.182   0.185   0.188   0.191   0.193   0.192
   154.45    0.185   0.183   0.177   0.180   0.188   0.187   0.185   0.182   0.180   0.178   0.180   0.188   0.193   0.187   0.193   0.196   0.189   0.185   0.204   0.205   0.207   0.200   0.194   0.190   0.194   0.196   0.198   0.191   0.186   0.189   0.184   0.184   0.186   0.188   0.198
   149.80    0.191   0.185   0.184   0.184   0.183   0.185   0.181   0.182   0.182   0.179   0.183   0.189   0.189   0.192   0.196   0.187   0.187   0.192   0.194   0.208   0.212   0.205   0.205   0.200   0.195   0.194   0.193   0.190   0.183   0.195   0.189   0.185   0.188   0.189   0.196
   145.15    0.191   0.182   0.186   0.188   0.188   0.178   0.171   0.180   0.180   0.182   0.186   0.181   0.190   0.188   0.184   0.192   0.191   0.192   0.195   0.211   0.215   0.215   0.209   0.202   0.195   0.188   0.189   0.185   0.188   0.194   0.193   0.188   0.188   0.188   0.199
   140.50    0.189   0.183   0.187   0.188   0.180   0.173   0.174   0.178   0.182   0.187   0.183   0.183   0.179   0.184   0.190   0.192   0.195   0.192   0.191   0.200   0.204   0.205   0.201   0.204   0.192   0.197   0.185   0.186   0.187   0.190   0.194   0.191   0.189   0.189   0.193
   135.85    0.184   0.184   0.182   0.185   0.180   0.185   0.177   0.177   0.186   0.189   0.184   0.187   0.185   0.187   0.186   0.191   0.191   0.185   0.192   0.199   0.201   0.205   0.208   0.202   0.195   0.196   0.187   0.191   0.187   0.182   0.186   0.183   0.189   0.188   0.188
   131.20    0.181   0.183   0.192   0.191   0.190   0.183   0.181   0.181   0.187   0.186   0.187   0.180   0.186   0.189   0.184   0.187   0.189   0.185   0.183   0.196   0.197   0.198   0.198   0.204   0.203   0.192   0.189   0.183   0.182   0.184   0.189   0.188   0.185   0.189   0.191
   126.55    0.182   0.182   0.182   0.184   0.182   0.180   0.177   0.179   0.179   0.179   0.183   0.180   0.191   0.189   0.187   0.192   0.193   0.187   0.187   0.189   0.197   0.189   0.193   0.191   0.190   0.192   0.194   0.183   0.185   0.183   0.182   0.179   0.181   0.186   0.189
   121.90    0.180   0.178   0.180   0.178   0.183   0.179   0.181   0.177   0.183   0.180   0.187   0.190   0.190   0.190   0.188   0.194   0.199   0.193   0.188   0.192   0.187   0.194   0.192   0.191   0.188   0.190   0.190   0.191   0.188   0.187   0.184   0.180   0.182   0.191   0.186
   117.25    0.180   0.182   0.177   0.178   0.181   0.184   0.186   0.181   0.188   0.188   0.186   0.188   0.191   0.190   0.191   0.191   0.194   0.190   0.185   0.188   0.199   0.196   0.188   0.185   0.192   0.190   0.184   0.191   0.198   0.189   0.178   0.178   0.184   0.182   0.182
   112.60    0.179   0.184   0.185   0.184   0.184   0.175   0.184   0.188   0.190   0.189   0.186   0.193   0.187   0.188   0.187   0.192   0.199   0.191   0.185   0.186   0.197   0.195   0.192   0.187   0.194   0.188   0.184   0.190   0.192   0.191   0.188   0.181   0.188   0.188   0.188
   107.95    0.189   0.187   0.193   0.191   0.185   0.186   0.183   0.195   0.192   0.182   0.186   0.189   0.182   0.182   0.182   0.188   0.195   0.196   0.185   0.192   0.193   0.194   0.188   0.184   0.188   0.194   0.190   0.186   0.190   0.193   0.189   0.187   0.192   0.189   0.187
   103.30    0.189   0.188   0.188   0.192   0.184   0.187   0.188   0.192   0.193   0.184   0.180   0.180   0.181   0.180   0.184   0.185   0.189   0.190   0.189   0.188   0.190   0.184   0.192   0.190   0.187   0.182   0.182   0.188   0.190   0.185   0.191   0.190   0.193   0.197   0.186
    98.65    0.188   0.185   0.187   0.188   0.183   0.190   0.191   0.191   0.190   0.190   0.189   0.185   0.183   0.183   0.188   0.181   0.191   0.194   0.194   0.189   0.187   0.181   0.184   0.186   0.188   0.177   0.177   0.181   0.182   0.184   0.189   0.187   0.195   0.197   0.196
    94.00    0.188   0.185   0.188   0.188   0.189   0.193   0.191   0.194   0.191   0.194   0.190   0.186   0.186   0.183   0.184   0.192   0.193   0.189   0.193   0.191   0.186   0.187   0.189   0.186   0.183   0.177   0.181   0.178   0.187   0.185   0.191   0.189   0.187   0.190   0.185
    89.35    0.194   0.194   0.193   0.185   0.186   0.180   0.183   0.195   0.192   0.190   0.191   0.189   0.195   0.188   0.183   0.182   0.195   0.186   0.193   0.195   0.192   0.189   0.195   0.184   0.177   0.173   0.180   0.178   0.182   0.178   0.188   0.202   0.195   0.184   0.192
    84.70    0.198   0.198   0.196   0.191   0.190   0.191   0.189   0.197   0.189   0.191   0.195   0.189   0.191   0.192   0.189   0.192   0.194   0.193   0.196   0.197   0.194   0.193   0.189   0.194   0.183   0.187   0.176   0.177   0.174   0.184   0.192   0.196   0.194   0.192   0.189
    80.05    0.193   0.195   0.190   0.193   0.191   0.198   0.190   0.191   0.190   0.193   0.197   0.192   0.193   0.186   0.189   0.196   0.193   0.194   0.196   0.198   0.190   0.189   0.192   0.189   0.184   0.188   0.182   0.177   0.181   0.185   0.185   0.196   0.198   0.191   0.190
    75.40    0.196   0.188   0.188   0.195   0.195   0.204   0.200   0.191   0.190   0.190   0.196   0.189   0.195   0.198   0.200   0.198   0.197   0.195   0.194   0.189   0.191   0.187   0.192   0.192   0.185   0.182   0.187   0.182   0.177   0.187   0.187   0.189   0.190   0.196   0.188
    70.75    0.195   0.198   0.195   0.197   0.194   0.200   0.197   0.189   0.191   0.192   0.194   0.193   0.189   0.188   0.197   0.198   0.190   0.192   0.199   0.196   0.182   0.180   0.188   0.187   0.192   0.187   0.186   0.186   0.179   0.187   0.189   0.181   0.188   0.198   0.181
    66.10    0.197   0.198   0.196   0.201   0.200   0.195   0.191   0.190   0.185   0.192   0.186   0.192   0.190   0.190   0.196   0.192   0.195   0.197   0.194   0.194   0.190   0.187   0.186   0.188   0.191   0.188   0.189   0.187   0.194   0.198   0.198   0.192   0.191   0.195   0.193
    61.45    0.208   0.202   0.197   0.206   0.202   0.201   0.195   0.197   0.195   0.191   0.186   0.185   0.186   0.192   0.193   0.193   0.193   0.191   0.193   0.194   0.187   0.187   0.189   0.187   0.179   0.182   0.191   0.194   0.197   0.202   0.206   0.199   0.191   0.194   0.189
    56.80    0.203   0.198   0.202   0.210   0.205   0.199   0.197   0.196   0.197   0.188   0.192   0.186   0.194   0.196   0.189   0.188   0.187   0.186   0.191   0.187   0.184   0.185   0.180   0.180   0.184   0.191   0.189   0.196   0.200   0.210   0.210   0.200   0.190   0.190   0.191
    52.15    0.205   0.208   0.210   0.205   0.208   0.208   0.208   0.199   0.197   0.196   0.195   0.192   0.196   0.200   0.194   0.189   0.186   0.188   0.192   0.190   0.185   0.187   0.177   0.177   0.186   0.198   0.195   0.203   0.200   0.201   0.208   0.190   0.190   0.186   0.189
    47.50    0.211   0.207   0.206   0.197   0.194   0.202   0.199   0.204   0.202   0.204   0.197   0.197   0.203   0.200   0.197   0.191   0.186   0.185   0.188   0.189   0.186   0.184   0.180   0.180   0.191   0.199   0.200   0.199   0.195   0.200   0.201   0.194   0.189   0.195   0.192
    42.85    0.205   0.199   0.198   0.191   0.200   0.193   0.194   0.200   0.202   0.203   0.205   0.200   0.203   0.197   0.186   0.187   0.187   0.188   0.190   0.195   0.189   0.188   0.182   0.185   0.191   0.193   0.193   0.198   0.188   0.190   0.197   0.189   0.196   0.189   0.191
    38.20    0.211   0.205   0.195   0.195   0.194   0.188   0.194   0.202   0.200   0.203   0.204   0.204   0.198   0.197   0.187   0.189   0.189   0.184   0.191   0.194   0.194   0.190   0.192   0.189   0.190   0.196   0.188   0.191   0.187   0.187   0.190   0.195   0.191   0.191   0.192
    33.55    0.205   0.207   0.200   0.195   0.185   0.185   0.196   0.202   0.198   0.193   0.205   0.204   0.203   0.194   0.194   0.194   0.195   0.188   0.187   0.189   0.197   0.188   0.189   0.188   0.185   0.190   0.185   0.192   0.184   0.184   0.188   0.196   0.192   0.189   0.188
    28.90    0.210   0.210   0.209   0.199   0.183   0.184   0.192   0.190   0.192   0.198   0.202   0.213   0.214   0.204   0.199   0.196   0.189   0.183   0.188   0.190   0.186   0.193   0.189   0.193   0.190   0.190   0.196   0.190   0.192   0.186   0.191   0.192   0.191   0.186   0.189
    24.25    0.206   0.209   0.202   0.196   0.195   0.188   0.194   0.195   0.200   0.203   0.201   0.202   0.210   0.204   0.199   0.199   0.180   0.174   0.188   0.189   0.191   0.188   0.190   0.199   0.188   0.191   0.191   0.190   0.186   0.187   0.188   0.197   0.188   0.188   0.185
    19.60    0.200   0.206   0.202   0.200   0.201   0.193   0.193   0.195   0.196   0.197   0.195   0.196   0.199   0.197   0.191   0.184   0.184   0.182   0.182   0.189   0.191   0.186   0.191   0.192   0.185   0.189   0.191   0.193   0.191   0.188   0.197   0.193   0.194   0.192   0.188
    14.95    0.206   0.205   0.201   0.206   0.203   0.198   0.195   0.195   0.194   0.188   0.194   0.198   0.194   0.187   0.191   0.185   0.179   0.185   0.185   0.182   0.194   0.187   0.189   0.182   0.189   0.188   0.191   0.198   0.195   0.191   0.189   0.192   0.189   0.198   0.197
    10.30    0.205   0.203   0.199   0.194   0.198   0.201   0.199   0.192   0.188   0.184   0.192   0.190   0.186   0.185   0.185   0.184   0.184   0.187   0.187   0.185   0.186   0.190   0.184   0.180   0.181   0.189   0.193   0.195   0.192   0.188   0.178   0.187   0.193   0.186   0.198
     5.65    0.202   0.196   0.195   0.193   0.197   0.199   0.198   0.189   0.184   0.194   0.191   0.187   0.186   0.178   0.183   0.181   0.194   0.191   0.185   0.184   0.187   0.186   0.185   0.181   0.185   0.189   0.187   0.184   0.184   0.176   0.172   0.179   0.184   0.185   0.186
     1.00    0.191   0.194   0.191   0.193   0.199   0.194   0.191   0.186   0.185   0.188   0.194   0.187   0.186   0.187   0.182   0.190   0.192   0.187   0.193   0.190   0.191   0.187   0.180   0.183   0.184   0.187   0.183   0.182   0.177   0.177   0.174   0.181   0.187   0.187   0.187

   Mean standard deviation across all grid points:
      u component:    0.514 m/s
      v component:    0.330 m/s
      w component:    0.190 m/s


U-component (X) statistics from the interpolated hub point:

   Mean =   9.9913 m/s
   TI   =   4.7581 %


Processing complete.  6114.5 CPU seconds used.
