
This summary file was generated by TurbSim (from OpenFAST-v3.5.3) on 20-Apr-2025 at 04:49:57.


Runtime Options:

-228636811  Random seed #1
    RANLUX  Type of random number generator
         F  Output binary HH turbulence parameters?
         F  Output formatted turbulence parameters?
         F  Output AeroDyn HH files?
         T  Output AeroDyn FF files?
         F  Output BLADED FF files?
         F  Output tower data?
         F  Output HAWC FF files?
         F  Output formatted FF files?
         T  Output coherent turbulence time step file?
 0 -  NONE  IEC turbulence models scaled to exact specified standard deviation


Turbine/Model Specifications:

        37  Vertical grid-point matrix dimension
        35  Horizontal grid-point matrix dimension
     0.250  Time step [seconds]
   900.000  Analysis time [seconds]
   900.000  Usable output time [seconds]
    89.350  Hub height [m]
   167.400  Grid height [m]
   158.100  Grid width [m]
     0.000  Vertical flow angle [degrees]
     0.000  Horizontal flow angle [degrees]


Meteorological Boundary Conditions:

    TIMESR  User-input time series spectral model
       N/A  IEC standard
       N/A  IEC turbulence characteristic
       N/A  IEC turbulence type
       N/A  IEC Extreme Turbulence Model (ETM) "c" parameter [m/s]
       PL   Wind profile type
    90.000  Reference height [m]
    10.000  Reference wind speed [m/s]
       N/A  Jet height [m]
     0.120  Power law exponent
     0.030  Surface roughness length [m]


Non-IEC Meteorological Boundary Conditions:

    45.000  Site latitude [degrees]
     0.050  Gradient Richardson number
     0.480  Friction or shear velocity [m/s]
       N/A  Mixing layer depth [m]
       N/A  Mean hub u'w' Reynolds stress
       N/A  Mean hub u'v' Reynolds stress
       N/A  Mean hub v'w' Reynolds stress


Spatial Coherence Models:

       IEC  u-component coherence model
       IEC  v-component coherence model
       IEC  w-component coherence model
(   12.000, 0.353E-03)  u-component coherence parameters
(   12.000, 0.353E-03)  v-component coherence parameters
(   12.000, 0.353E-03)  w-component coherence parameters
       N/A  Coherence exponent


Coherent Turbulence Scaling Parameters:

.\EventData
            Name of the path containing the coherent turbulence data files
       les  Type of coherent turbulence data files
     1.000  Disturbance scale (ratio of wave height to rotor diameter)
     0.500  Fractional location of tower centerline from right
     0.500  Fractional location of hub height from the bottom of the dataset
    30.000  Minimum start time for coherent structures [seconds]


Profiles from User-Defined Time-Series Input:

  Height   Wind Speed   Horizontal Angle   Vertical Angle
   (m)        (m/s)          (deg)              (deg)    
  ------   ----------   ----------------   --------------
   94.00      10.00          -0.63                0.00


You have requested that the following file(s) be generated:

   /kfs3/scratch/agupta/Projects/RL_Incubator/FinalRuns_Veer/Seed4/./FFSim_Seed4/Cond00_v10.0_PL0.12_TI6.0/Case1_wdirp02/Seed_1/TurbSim/HighT4.bts (AeroDyn/TurbSim full-field wind file)


Turbulence Simulation Scaling Parameter Summary:

   Turbulence model used                            =  User-input time series
   Gradient Richardson number                       =    0.050
   Monin-Obukhov (M-O) z/L parameter                =    0.067
   Monin-Obukhov (M-O) length scale                 = 1340.250 m
   Mean wind speed at hub height                    =    9.991 m/s

   Wind profile type                                =  Power law
   Power law exponent                               =    0.120
   Mean shear across rotor disk                     =    0.019 (m/s)/m
   Assumed rotor diameter                           =  158.100 m
   Surface roughness length                         =    0.030 m

   Nyquist frequency of turbulent wind field        =    2.000 Hz

   Number of time steps in the FFT                  =     3600
   Number of time steps output                      =     3600
   Number of points simulated                       =     1296


Mean Flow Angles:

   Vertical   =   0.0 degrees
   Horizontal =   0.0 degrees

Mean Wind Speed Profile:

   Height    Wind Speed   Horizontal Angle  Vertical Angle  U-comp (X)   V-comp (Y)   W-comp (Z)
     (m)        (m/s)         (degrees)       (degrees)       (m/s)        (m/s)        (m/s)   
   ------    ----------   ----------------  --------------  ----------   ----------   ----------
    168.4       10.78            0.00            0.00         10.78         0.00         0.00
    163.7       10.74            0.00            0.00         10.74         0.00         0.00
    159.1       10.71            0.00            0.00         10.71         0.00         0.00
    154.4       10.67            0.00            0.00         10.67         0.00         0.00
    149.8       10.63            0.00            0.00         10.63         0.00         0.00
    145.1       10.59            0.00            0.00         10.59         0.00         0.00
    140.5       10.55            0.00            0.00         10.55         0.00         0.00
    135.8       10.51            0.00            0.00         10.51         0.00         0.00
    131.2       10.46            0.00            0.00         10.46         0.00         0.00
    126.5       10.42            0.00            0.00         10.42         0.00         0.00
    121.9       10.37            0.00            0.00         10.37         0.00         0.00
    117.2       10.32            0.00            0.00         10.32         0.00         0.00
    112.6       10.27            0.00            0.00         10.27         0.00         0.00
    107.9       10.22            0.00            0.00         10.22         0.00         0.00
    103.3       10.17            0.00            0.00         10.17         0.00         0.00
     98.6       10.11            0.00            0.00         10.11         0.00         0.00
     94.0       10.05            0.00            0.00         10.05         0.00         0.00
     89.3        9.99            0.00            0.00          9.99         0.00         0.00
     84.7        9.93            0.00            0.00          9.93         0.00         0.00
     80.0        9.86            0.00            0.00          9.86         0.00         0.00
     75.4        9.79            0.00            0.00          9.79         0.00         0.00
     70.7        9.72            0.00            0.00          9.72         0.00         0.00
     66.1        9.64            0.00            0.00          9.64         0.00         0.00
     61.4        9.55            0.00            0.00          9.55         0.00         0.00
     56.8        9.46            0.00            0.00          9.46         0.00         0.00
     52.1        9.37            0.00            0.00          9.37         0.00         0.00
     47.5        9.26            0.00            0.00          9.26         0.00         0.00
     42.8        9.15            0.00            0.00          9.15         0.00         0.00
     38.2        9.02            0.00            0.00          9.02         0.00         0.00
     33.5        8.88            0.00            0.00          8.88         0.00         0.00
     28.9        8.73            0.00            0.00          8.73         0.00         0.00
     24.2        8.54            0.00            0.00          8.54         0.00         0.00
     19.6        8.33            0.00            0.00          8.33         0.00         0.00
     14.9        8.06            0.00            0.00          8.06         0.00         0.00
     10.3        7.71            0.00            0.00          7.71         0.00         0.00
      5.6        7.17            0.00            0.00          7.17         0.00         0.00
      1.0        5.83            0.00            0.00          5.83         0.00         0.00


Harvested Random Seeds after Generation of the Random Numbers:

     65026800 K 1
            0 K 2


Hub-Height Simulated Turbulence Statistical Summary:

   Type of Wind        Min (m/s)   Mean (m/s)    Max (m/s)  Sigma (m/s)       TI (%)
   ----------------    ---------   ----------    ---------  -----------       ------
   Longitudinal (u)         7.99         9.99        11.50        0.547        5.476
   Lateral (v)             -1.80        -0.00         1.37        0.434        4.343
   Vertical (w)            -0.97        -0.00         0.85        0.275        2.749
   U component              7.99         9.99        11.50        0.547        5.476
   V component             -1.80        -0.00         1.37        0.434        4.343
   W component             -0.97        -0.00         0.85        0.275        2.749
   Horizontal (U&V)         7.99        10.00        11.50        0.546        5.461
   Total                    7.99        10.00        11.51        0.546        5.458

                       Min Reynolds     Mean Reynolds    Max Reynolds    Correlation
   Product             Stress (m/s)^2   Stress (m/s)^2   Stress (m/s)^2  Coefficient
   ----------------    --------------   --------------   --------------  -----------
   u'w'                     -0.724             0.015             0.752         0.097
   u'v'                     -1.560            -0.014             1.884        -0.058
   v'w'                     -0.587             0.002             0.910         0.014


   Friction Velocity (Ustar)  =      0.121 m/s
   Maximum Instantaneous TKE  =      2.170 (m/s)^2
   Maximum Instantaneous CTKE =      0.942 (m/s)^2


Grid Point Variance Summary:

   Y-coord  -79.05  -74.40  -69.75  -65.10  -60.45  -55.80  -51.15  -46.50  -41.85  -37.20  -32.55  -27.90  -23.25  -18.60  -13.95   -9.30   -4.65    0.00    4.65    9.30   13.95   18.60   23.25   27.90   32.55   37.20   41.85   46.50   51.15   55.80   60.45   65.10   69.75   74.40   79.05

   Height   Standard deviation at grid points for the u component:
   168.40    0.574   0.570   0.570   0.561   0.537   0.568   0.575   0.560   0.588   0.597   0.615   0.631   0.626   0.591   0.619   0.554   0.507   0.520   0.499   0.521   0.559   0.554   0.528   0.541   0.558   0.589   0.615   0.598   0.609   0.605   0.627   0.583   0.612   0.582   0.593
   163.75    0.570   0.571   0.550   0.547   0.550   0.557   0.583   0.591   0.581   0.591   0.594   0.587   0.610   0.591   0.604   0.563   0.553   0.519   0.518   0.543   0.540   0.545   0.542   0.538   0.528   0.596   0.578   0.594   0.611   0.622   0.606   0.581   0.569   0.577   0.569
   159.10    0.585   0.578   0.587   0.572   0.572   0.542   0.575   0.586   0.587   0.593   0.577   0.574   0.582   0.579   0.598   0.538   0.533   0.509   0.540   0.548   0.498   0.496   0.510   0.553   0.553   0.596   0.570   0.563   0.616   0.600   0.594   0.597   0.561   0.577   0.584
   154.45    0.572   0.569   0.578   0.567   0.596   0.568   0.563   0.586   0.571   0.558   0.556   0.597   0.591   0.576   0.550   0.539   0.525   0.540   0.508   0.531   0.535   0.515   0.504   0.527   0.556   0.569   0.577   0.591   0.589   0.587   0.573   0.578   0.585   0.607   0.603
   149.80    0.600   0.580   0.583   0.546   0.527   0.524   0.562   0.561   0.522   0.573   0.556   0.559   0.601   0.564   0.561   0.562   0.551   0.560   0.527   0.550   0.564   0.516   0.527   0.540   0.592   0.554   0.556   0.561   0.543   0.540   0.557   0.565   0.553   0.566   0.570
   145.15    0.573   0.581   0.545   0.565   0.534   0.546   0.512   0.551   0.545   0.574   0.539   0.595   0.591   0.583   0.577   0.572   0.535   0.579   0.572   0.564   0.560   0.538   0.537   0.561   0.586   0.593   0.573   0.580   0.547   0.530   0.542   0.573   0.550   0.562   0.555
   140.50    0.552   0.515   0.524   0.531   0.532   0.523   0.542   0.547   0.552   0.530   0.527   0.565   0.621   0.621   0.623   0.565   0.573   0.616   0.604   0.582   0.579   0.569   0.573   0.605   0.591   0.585   0.559   0.530   0.544   0.546   0.560   0.530   0.523   0.529   0.550
   135.85    0.555   0.560   0.546   0.528   0.543   0.515   0.531   0.558   0.552   0.567   0.580   0.590   0.590   0.594   0.583   0.585   0.586   0.587   0.608   0.598   0.564   0.570   0.573   0.614   0.597   0.579   0.569   0.556   0.554   0.546   0.554   0.555   0.528   0.508   0.523
   131.20    0.565   0.554   0.573   0.524   0.510   0.487   0.532   0.539   0.536   0.570   0.601   0.600   0.579   0.589   0.608   0.613   0.579   0.559   0.566   0.584   0.548   0.562   0.574   0.602   0.613   0.603   0.563   0.567   0.561   0.539   0.556   0.547   0.525   0.514   0.507
   126.55    0.597   0.576   0.604   0.565   0.540   0.533   0.535   0.542   0.546   0.590   0.616   0.584   0.588   0.590   0.594   0.574   0.564   0.537   0.554   0.570   0.560   0.554   0.538   0.592   0.588   0.588   0.570   0.557   0.587   0.554   0.537   0.537   0.492   0.540   0.518
   121.90    0.585   0.593   0.627   0.571   0.540   0.555   0.532   0.543   0.574   0.610   0.580   0.578   0.594   0.600   0.577   0.578   0.561   0.560   0.560   0.582   0.580   0.596   0.572   0.572   0.564   0.561   0.552   0.573   0.575   0.582   0.555   0.532   0.506   0.519   0.531
   117.25    0.555   0.572   0.588   0.549   0.507   0.555   0.536   0.567   0.568   0.552   0.569   0.574   0.586   0.591   0.583   0.564   0.559   0.567   0.568   0.570   0.574   0.586   0.572   0.573   0.576   0.560   0.562   0.536   0.546   0.556   0.562   0.565   0.538   0.558   0.539
   112.60    0.574   0.561   0.562   0.542   0.542   0.550   0.564   0.553   0.534   0.549   0.561   0.571   0.589   0.547   0.565   0.566   0.557   0.548   0.561   0.556   0.559   0.553   0.555   0.559   0.544   0.537   0.547   0.524   0.556   0.528   0.522   0.552   0.537   0.546   0.520
   107.95    0.609   0.608   0.604   0.574   0.548   0.546   0.581   0.590   0.566   0.577   0.589   0.574   0.563   0.559   0.577   0.559   0.555   0.587   0.544   0.553   0.550   0.560   0.549   0.552   0.550   0.538   0.526   0.541   0.547   0.518   0.503   0.553   0.538   0.566   0.546
   103.30    0.604   0.590   0.586   0.596   0.578   0.558   0.553   0.572   0.558   0.572   0.553   0.592   0.575   0.601   0.586   0.565   0.582   0.584   0.567   0.531   0.520   0.521   0.556   0.526   0.532   0.536   0.509   0.524   0.507   0.513   0.519   0.520   0.541   0.544   0.567
    98.65    0.626   0.604   0.641   0.639   0.609   0.561   0.551   0.565   0.555   0.564   0.568   0.599   0.616   0.618   0.608   0.590   0.561   0.585   0.561   0.563   0.503   0.530   0.527   0.538   0.516   0.532   0.523   0.515   0.508   0.482   0.487   0.481   0.501   0.539   0.547
    94.00    0.638   0.656   0.641   0.649   0.610   0.616   0.565   0.574   0.524   0.553   0.606   0.621   0.632   0.644   0.608   0.554   0.545   0.571   0.563   0.559   0.532   0.510   0.518   0.539   0.528   0.518   0.540   0.516   0.501   0.508   0.485   0.487   0.505   0.529   0.543
    89.35    0.631   0.657   0.656   0.644   0.612   0.608   0.590   0.567   0.555   0.560   0.595   0.619   0.626   0.608   0.602   0.569   0.529   0.547   0.599   0.546   0.555   0.542   0.524   0.509   0.524   0.508   0.520   0.512   0.506   0.508   0.532   0.513   0.529   0.498   0.527
    84.70    0.625   0.624   0.667   0.652   0.632   0.650   0.609   0.577   0.583   0.573   0.578   0.598   0.618   0.603   0.604   0.581   0.546   0.569   0.576   0.554   0.552   0.540   0.518   0.503   0.501   0.515   0.509   0.532   0.531   0.527   0.510   0.530   0.511   0.543   0.528
    80.05    0.616   0.667   0.640   0.640   0.642   0.604   0.606   0.611   0.604   0.615   0.584   0.569   0.616   0.643   0.610   0.602   0.551   0.562   0.575   0.551   0.547   0.561   0.550   0.496   0.510   0.486   0.485   0.525   0.550   0.537   0.526   0.526   0.500   0.537   0.577
    75.40    0.680   0.658   0.644   0.623   0.608   0.608   0.604   0.617   0.611   0.632   0.604   0.581   0.617   0.633   0.599   0.580   0.554   0.584   0.600   0.586   0.601   0.559   0.539   0.546   0.519   0.502   0.505   0.534   0.530   0.544   0.525   0.538   0.554   0.554   0.559
    70.75    0.669   0.680   0.699   0.695   0.648   0.642   0.630   0.629   0.640   0.631   0.601   0.620   0.636   0.645   0.609   0.617   0.576   0.586   0.584   0.595   0.582   0.578   0.570   0.555   0.540   0.515   0.505   0.542   0.548   0.570   0.534   0.549   0.565   0.546   0.574
    66.10    0.667   0.663   0.637   0.657   0.666   0.622   0.646   0.599   0.621   0.610   0.620   0.626   0.647   0.652   0.625   0.599   0.610   0.556   0.546   0.570   0.602   0.580   0.580   0.561   0.564   0.541   0.514   0.547   0.547   0.554   0.582   0.576   0.588   0.601   0.603
    61.45    0.675   0.655   0.637   0.632   0.636   0.608   0.616   0.613   0.610   0.606   0.591   0.648   0.651   0.631   0.618   0.576   0.600   0.582   0.580   0.545   0.567   0.551   0.574   0.570   0.570   0.536   0.528   0.562   0.562   0.560   0.580   0.616   0.589   0.612   0.629
    56.80    0.658   0.647   0.640   0.635   0.601   0.632   0.624   0.642   0.637   0.658   0.633   0.638   0.633   0.629   0.616   0.609   0.608   0.575   0.575   0.550   0.550   0.548   0.559   0.515   0.575   0.573   0.568   0.591   0.594   0.601   0.558   0.604   0.592   0.595   0.619
    52.15    0.635   0.659   0.632   0.609   0.589   0.604   0.593   0.613   0.589   0.602   0.624   0.555   0.576   0.603   0.626   0.612   0.606   0.605   0.580   0.555   0.552   0.558   0.541   0.526   0.540   0.538   0.576   0.615   0.582   0.582   0.574   0.564   0.575   0.594   0.599
    47.50    0.671   0.663   0.649   0.623   0.573   0.586   0.588   0.573   0.585   0.585   0.559   0.590   0.564   0.581   0.623   0.609   0.607   0.620   0.592   0.572   0.574   0.563   0.566   0.550   0.542   0.569   0.578   0.580   0.555   0.561   0.578   0.573   0.575   0.576   0.582
    42.85    0.645   0.652   0.626   0.610   0.595   0.599   0.582   0.541   0.567   0.556   0.543   0.571   0.554   0.546   0.589   0.614   0.628   0.609   0.587   0.571   0.550   0.572   0.555   0.538   0.573   0.570   0.566   0.555   0.555   0.528   0.530   0.555   0.572   0.571   0.558
    38.20    0.627   0.649   0.623   0.595   0.601   0.563   0.557   0.546   0.532   0.544   0.541   0.532   0.563   0.570   0.595   0.584   0.576   0.590   0.570   0.545   0.533   0.529   0.544   0.564   0.529   0.548   0.587   0.581   0.548   0.527   0.504   0.533   0.519   0.556   0.579
    33.55    0.679   0.639   0.596   0.600   0.580   0.569   0.575   0.574   0.575   0.566   0.547   0.559   0.546   0.558   0.585   0.547   0.563   0.585   0.546   0.501   0.524   0.553   0.523   0.558   0.574   0.583   0.584   0.575   0.538   0.540   0.552   0.514   0.527   0.543   0.543
    28.90    0.653   0.642   0.602   0.602   0.603   0.583   0.569   0.574   0.547   0.558   0.521   0.538   0.580   0.576   0.572   0.554   0.528   0.551   0.545   0.484   0.513   0.504   0.494   0.533   0.560   0.553   0.580   0.567   0.543   0.539   0.540   0.531   0.539   0.540   0.533
    24.25    0.631   0.628   0.598   0.584   0.577   0.594   0.578   0.569   0.560   0.550   0.558   0.551   0.587   0.557   0.554   0.535   0.518   0.516   0.498   0.509   0.498   0.510   0.529   0.515   0.522   0.549   0.577   0.559   0.550   0.547   0.508   0.499   0.533   0.537   0.545
    19.60    0.619   0.615   0.584   0.576   0.570   0.568   0.587   0.575   0.557   0.516   0.521   0.541   0.555   0.561   0.542   0.535   0.532   0.502   0.507   0.493   0.525   0.541   0.504   0.525   0.544   0.563   0.587   0.556   0.565   0.556   0.536   0.516   0.529   0.549   0.525
    14.95    0.619   0.605   0.609   0.607   0.604   0.599   0.592   0.577   0.583   0.558   0.558   0.566   0.567   0.559   0.535   0.525   0.519   0.491   0.499   0.515   0.495   0.527   0.511   0.541   0.558   0.590   0.557   0.559   0.571   0.562   0.552   0.524   0.519   0.524   0.520
    10.30    0.582   0.595   0.579   0.599   0.623   0.594   0.571   0.584   0.578   0.573   0.534   0.545   0.566   0.552   0.533   0.546   0.485   0.515   0.510   0.517   0.507   0.481   0.512   0.537   0.554   0.574   0.566   0.541   0.562   0.550   0.524   0.492   0.536   0.518   0.531
     5.65    0.563   0.588   0.627   0.591   0.598   0.572   0.541   0.565   0.560   0.533   0.558   0.533   0.539   0.561   0.533   0.553   0.542   0.544   0.502   0.497   0.507   0.471   0.490   0.549   0.531   0.569   0.570   0.549   0.525   0.524   0.531   0.512   0.523   0.532   0.513
     1.00    0.591   0.595   0.626   0.584   0.568   0.545   0.552   0.548   0.539   0.536   0.523   0.507   0.534   0.546   0.548   0.556   0.571   0.531   0.498   0.523   0.490   0.484   0.473   0.527   0.526   0.559   0.549   0.531   0.554   0.537   0.540   0.556   0.521   0.500   0.519

   Height   Standard deviation at grid points for the v component:
   168.40    0.413   0.413   0.417   0.439   0.439   0.445   0.450   0.449   0.457   0.454   0.454   0.466   0.473   0.444   0.427   0.441   0.463   0.454   0.462   0.440   0.460   0.456   0.455   0.449   0.454   0.473   0.514   0.497   0.494   0.492   0.478   0.480   0.489   0.503   0.501
   163.75    0.402   0.404   0.393   0.447   0.460   0.457   0.456   0.446   0.447   0.449   0.462   0.476   0.471   0.454   0.440   0.433   0.441   0.442   0.438   0.436   0.432   0.454   0.455   0.453   0.451   0.499   0.481   0.503   0.499   0.486   0.470   0.490   0.496   0.464   0.472
   159.10    0.422   0.424   0.418   0.434   0.427   0.446   0.462   0.462   0.430   0.438   0.417   0.446   0.462   0.446   0.452   0.446   0.457   0.449   0.433   0.459   0.439   0.433   0.448   0.448   0.453   0.479   0.505   0.502   0.517   0.491   0.489   0.489   0.474   0.483   0.469
   154.45    0.413   0.450   0.421   0.425   0.446   0.447   0.432   0.455   0.448   0.431   0.421   0.439   0.437   0.441   0.444   0.452   0.441   0.430   0.426   0.442   0.453   0.434   0.437   0.474   0.498   0.513   0.533   0.512   0.525   0.495   0.491   0.509   0.508   0.480   0.445
   149.80    0.448   0.470   0.433   0.433   0.448   0.436   0.433   0.456   0.436   0.439   0.425   0.441   0.436   0.449   0.443   0.455   0.441   0.437   0.453   0.426   0.445   0.446   0.456   0.487   0.493   0.521   0.538   0.530   0.502   0.501   0.478   0.489   0.461   0.474   0.445
   145.15    0.441   0.457   0.456   0.433   0.458   0.435   0.450   0.457   0.434   0.436   0.416   0.434   0.431   0.450   0.455   0.468   0.463   0.445   0.439   0.448   0.441   0.442   0.443   0.468   0.471   0.492   0.500   0.493   0.487   0.510   0.480   0.485   0.483   0.446   0.452
   140.50    0.429   0.452   0.458   0.461   0.446   0.443   0.463   0.449   0.445   0.438   0.419   0.426   0.437   0.444   0.464   0.485   0.493   0.491   0.481   0.460   0.476   0.493   0.495   0.470   0.446   0.464   0.461   0.473   0.468   0.480   0.505   0.496   0.469   0.464   0.462
   135.85    0.439   0.453   0.483   0.474   0.436   0.416   0.437   0.425   0.438   0.443   0.436   0.421   0.442   0.442   0.458   0.455   0.478   0.465   0.481   0.502   0.490   0.477   0.475   0.456   0.461   0.449   0.479   0.490   0.468   0.502   0.512   0.487   0.463   0.459   0.456
   131.20    0.459   0.456   0.476   0.475   0.450   0.425   0.422   0.423   0.414   0.404   0.423   0.447   0.466   0.483   0.475   0.473   0.462   0.476   0.481   0.494   0.488   0.475   0.472   0.457   0.471   0.454   0.449   0.475   0.481   0.481   0.488   0.494   0.484   0.474   0.467
   126.55    0.448   0.442   0.468   0.433   0.442   0.433   0.439   0.433   0.424   0.417   0.417   0.427   0.442   0.466   0.466   0.463   0.497   0.477   0.466   0.500   0.498   0.472   0.479   0.477   0.474   0.457   0.470   0.460   0.472   0.466   0.466   0.472   0.463   0.471   0.469
   121.90    0.407   0.418   0.441   0.441   0.439   0.444   0.449   0.435   0.434   0.414   0.406   0.432   0.423   0.466   0.471   0.488   0.498   0.501   0.506   0.529   0.526   0.501   0.457   0.449   0.454   0.462   0.449   0.457   0.463   0.470   0.465   0.476   0.460   0.448   0.464
   117.25    0.392   0.398   0.418   0.445   0.459   0.457   0.476   0.438   0.441   0.434   0.428   0.421   0.452   0.475   0.499   0.490   0.526   0.529   0.532   0.503   0.510   0.484   0.494   0.478   0.431   0.441   0.461   0.453   0.461   0.456   0.440   0.465   0.452   0.430   0.458
   112.60    0.393   0.419   0.408   0.451   0.441   0.451   0.453   0.428   0.406   0.448   0.430   0.421   0.456   0.470   0.469   0.488   0.526   0.480   0.494   0.501   0.514   0.495   0.487   0.486   0.446   0.462   0.447   0.477   0.459   0.452   0.442   0.444   0.455   0.446   0.441
   107.95    0.401   0.405   0.427   0.450   0.449   0.443   0.443   0.415   0.406   0.416   0.406   0.419   0.437   0.452   0.449   0.470   0.466   0.473   0.483   0.467   0.470   0.477   0.464   0.438   0.440   0.441   0.471   0.458   0.465   0.454   0.414   0.435   0.451   0.463   0.465
   103.30    0.387   0.420   0.420   0.450   0.427   0.446   0.423   0.411   0.417   0.417   0.407   0.418   0.417   0.423   0.437   0.439   0.435   0.462   0.454   0.434   0.463   0.447   0.434   0.445   0.441   0.469   0.458   0.456   0.457   0.444   0.412   0.422   0.437   0.457   0.459
    98.65    0.384   0.385   0.409   0.425   0.435   0.457   0.443   0.419   0.397   0.425   0.420   0.420   0.414   0.400   0.408   0.414   0.415   0.449   0.429   0.447   0.446   0.437   0.418   0.415   0.439   0.455   0.454   0.447   0.453   0.424   0.429   0.428   0.418   0.432   0.447
    94.00    0.386   0.385   0.391   0.401   0.423   0.414   0.425   0.420   0.420   0.410   0.413   0.430   0.407   0.403   0.398   0.400   0.425   0.444   0.447   0.458   0.457   0.449   0.415   0.400   0.414   0.448   0.456   0.442   0.435   0.412   0.421   0.418   0.428   0.447   0.451
    89.35    0.394   0.385   0.380   0.385   0.417   0.419   0.411   0.435   0.443   0.417   0.416   0.414   0.380   0.394   0.407   0.416   0.429   0.434   0.432   0.441   0.435   0.439   0.416   0.429   0.456   0.438   0.453   0.430   0.430   0.420   0.443   0.436   0.430   0.421   0.418
    84.70    0.395   0.385   0.397   0.398   0.410   0.422   0.437   0.454   0.445   0.410   0.413   0.404   0.423   0.420   0.421   0.414   0.424   0.444   0.418   0.444   0.440   0.415   0.422   0.422   0.450   0.471   0.447   0.426   0.420   0.417   0.427   0.441   0.422   0.435   0.442
    80.05    0.396   0.391   0.382   0.392   0.402   0.413   0.427   0.449   0.460   0.445   0.440   0.412   0.430   0.425   0.436   0.432   0.421   0.443   0.450   0.440   0.429   0.440   0.447   0.452   0.445   0.460   0.446   0.468   0.456   0.435   0.414   0.438   0.437   0.456   0.472
    75.40    0.429   0.405   0.393   0.395   0.408   0.413   0.422   0.420   0.440   0.444   0.443   0.441   0.446   0.436   0.450   0.421   0.425   0.438   0.454   0.468   0.457   0.438   0.462   0.479   0.465   0.476   0.489   0.467   0.442   0.434   0.417   0.436   0.435   0.444   0.453
    70.75    0.417   0.407   0.385   0.411   0.410   0.417   0.433   0.438   0.444   0.429   0.438   0.445   0.456   0.455   0.454   0.441   0.446   0.452   0.471   0.456   0.465   0.456   0.460   0.487   0.494   0.481   0.479   0.466   0.449   0.445   0.435   0.427   0.424   0.446   0.457
    66.10    0.424   0.415   0.408   0.399   0.420   0.435   0.437   0.449   0.484   0.456   0.438   0.413   0.442   0.438   0.455   0.448   0.466   0.472   0.470   0.465   0.467   0.482   0.478   0.494   0.491   0.462   0.467   0.447   0.452   0.457   0.422   0.427   0.434   0.437   0.448
    61.45    0.402   0.412   0.396   0.417   0.416   0.441   0.430   0.439   0.446   0.468   0.452   0.407   0.427   0.435   0.445   0.447   0.449   0.466   0.465   0.483   0.485   0.461   0.460   0.493   0.494   0.462   0.472   0.476   0.473   0.463   0.438   0.436   0.441   0.448   0.435
    56.80    0.438   0.424   0.421   0.431   0.430   0.427   0.416   0.434   0.440   0.432   0.425   0.430   0.422   0.427   0.452   0.453   0.444   0.449   0.479   0.459   0.472   0.456   0.454   0.493   0.489   0.502   0.473   0.447   0.451   0.456   0.438   0.465   0.460   0.453   0.437
    52.15    0.432   0.426   0.419   0.437   0.446   0.440   0.423   0.433   0.427   0.399   0.420   0.392   0.419   0.422   0.425   0.443   0.479   0.448   0.465   0.469   0.492   0.457   0.459   0.463   0.479   0.484   0.489   0.445   0.440   0.434   0.426   0.454   0.455   0.453   0.443
    47.50    0.450   0.424   0.427   0.443   0.458   0.438   0.421   0.419   0.421   0.415   0.400   0.415   0.422   0.424   0.434   0.442   0.451   0.465   0.472   0.460   0.469   0.464   0.426   0.417   0.461   0.470   0.459   0.454   0.458   0.438   0.436   0.451   0.444   0.450   0.418
    42.85    0.431   0.421   0.435   0.447   0.433   0.420   0.412   0.433   0.418   0.381   0.395   0.406   0.426   0.437   0.423   0.433   0.426   0.421   0.439   0.444   0.455   0.439   0.421   0.425   0.439   0.455   0.437   0.436   0.453   0.441   0.427   0.456   0.449   0.433   0.421
    38.20    0.417   0.415   0.422   0.454   0.422   0.428   0.439   0.424   0.424   0.388   0.393   0.401   0.425   0.445   0.420   0.428   0.423   0.408   0.411   0.425   0.426   0.433   0.437   0.424   0.436   0.446   0.428   0.430   0.426   0.418   0.419   0.435   0.426   0.399   0.430
    33.55    0.442   0.443   0.442   0.432   0.440   0.449   0.425   0.439   0.445   0.408   0.396   0.406   0.434   0.434   0.413   0.387   0.417   0.408   0.421   0.418   0.429   0.422   0.416   0.417   0.413   0.421   0.409   0.431   0.417   0.428   0.428   0.439   0.424   0.411   0.410
    28.90    0.424   0.429   0.426   0.407   0.441   0.471   0.473   0.432   0.446   0.411   0.424   0.426   0.418   0.422   0.421   0.430   0.418   0.402   0.394   0.410   0.423   0.424   0.420   0.430   0.433   0.416   0.424   0.429   0.422   0.426   0.438   0.426   0.410   0.406   0.429
    24.25    0.419   0.434   0.435   0.415   0.429   0.461   0.451   0.460   0.455   0.428   0.419   0.398   0.404   0.415   0.390   0.389   0.405   0.398   0.400   0.410   0.416   0.423   0.426   0.440   0.433   0.429   0.424   0.442   0.426   0.437   0.424   0.425   0.399   0.410   0.429
    19.60    0.445   0.440   0.433   0.429   0.455   0.450   0.425   0.453   0.440   0.399   0.411   0.405   0.410   0.401   0.402   0.376   0.370   0.395   0.412   0.416   0.408   0.404   0.417   0.434   0.435   0.432   0.425   0.428   0.424   0.420   0.402   0.398   0.398   0.426   0.417
    14.95    0.417   0.450   0.440   0.459   0.467   0.443   0.456   0.448   0.451   0.427   0.401   0.386   0.389   0.393   0.390   0.401   0.373   0.376   0.392   0.393   0.396   0.417   0.423   0.426   0.431   0.422   0.421   0.413   0.426   0.412   0.398   0.393   0.412   0.423   0.440
    10.30    0.445   0.455   0.457   0.470   0.493   0.470   0.482   0.469   0.438   0.421   0.379   0.381   0.389   0.366   0.390   0.424   0.397   0.373   0.390   0.390   0.386   0.409   0.438   0.439   0.431   0.419   0.415   0.415   0.424   0.413   0.417   0.422   0.421   0.423   0.431
     5.65    0.435   0.461   0.467   0.477   0.478   0.467   0.464   0.428   0.421   0.402   0.378   0.384   0.383   0.413   0.407   0.428   0.382   0.398   0.412   0.413   0.420   0.436   0.446   0.428   0.429   0.415   0.429   0.431   0.444   0.431   0.427   0.450   0.444   0.435   0.421
     1.00    0.425   0.440   0.432   0.442   0.431   0.455   0.435   0.413   0.414   0.405   0.395   0.381   0.382   0.384   0.399   0.412   0.399   0.399   0.434   0.432   0.442   0.424   0.430   0.425   0.425   0.430   0.441   0.441   0.442   0.443   0.421   0.444   0.439   0.435   0.441

   Height   Standard deviation at grid points for the w component:
   168.40    0.272   0.279   0.267   0.275   0.278   0.276   0.280   0.271   0.273   0.274   0.272   0.287   0.284   0.286   0.278   0.291   0.292   0.300   0.315   0.317   0.300   0.307   0.300   0.302   0.291   0.286   0.283   0.284   0.296   0.307   0.306   0.305   0.300   0.314   0.319
   163.75    0.281   0.274   0.279   0.274   0.269   0.271   0.275   0.273   0.270   0.275   0.285   0.275   0.280   0.283   0.282   0.286   0.298   0.320   0.319   0.319   0.299   0.296   0.306   0.310   0.300   0.297   0.303   0.302   0.292   0.309   0.306   0.306   0.315   0.326   0.319
   159.10    0.280   0.285   0.273   0.279   0.271   0.275   0.274   0.270   0.279   0.287   0.281   0.273   0.293   0.290   0.286   0.298   0.300   0.307   0.317   0.311   0.302   0.298   0.302   0.308   0.299   0.292   0.308   0.300   0.296   0.310   0.310   0.295   0.319   0.329   0.318
   154.45    0.279   0.279   0.275   0.273   0.280   0.277   0.279   0.284   0.275   0.282   0.286   0.274   0.287   0.287   0.284   0.296   0.300   0.303   0.310   0.281   0.287   0.291   0.303   0.296   0.286   0.294   0.294   0.298   0.305   0.304   0.299   0.311   0.315   0.315   0.313
   149.80    0.280   0.279   0.266   0.285   0.278   0.273   0.268   0.275   0.297   0.295   0.290   0.288   0.274   0.285   0.286   0.296   0.301   0.298   0.306   0.283   0.296   0.295   0.307   0.296   0.297   0.287   0.283   0.294   0.302   0.310   0.303   0.303   0.300   0.303   0.286
   145.15    0.280   0.277   0.274   0.286   0.272   0.269   0.269   0.284   0.289   0.292   0.285   0.283   0.285   0.295   0.296   0.296   0.303   0.303   0.299   0.281   0.287   0.296   0.293   0.284   0.283   0.292   0.279   0.285   0.294   0.291   0.300   0.309   0.306   0.305   0.285
   140.50    0.268   0.279   0.279   0.284   0.271   0.268   0.271   0.280   0.292   0.286   0.277   0.272   0.282   0.286   0.281   0.292   0.303   0.307   0.294   0.305   0.298   0.292   0.287   0.289   0.293   0.288   0.278   0.285   0.286   0.281   0.281   0.297   0.295   0.304   0.297
   135.85    0.268   0.281   0.287   0.282   0.278   0.280   0.279   0.274   0.290   0.276   0.272   0.284   0.292   0.282   0.289   0.299   0.296   0.301   0.295   0.301   0.301   0.294   0.296   0.287   0.296   0.296   0.277   0.282   0.275   0.282   0.288   0.296   0.294   0.292   0.298
   131.20    0.272   0.285   0.278   0.273   0.278   0.277   0.281   0.289   0.283   0.288   0.297   0.284   0.286   0.296   0.299   0.294   0.299   0.289   0.284   0.288   0.283   0.295   0.295   0.285   0.288   0.287   0.281   0.284   0.279   0.281   0.283   0.290   0.301   0.296   0.309
   126.55    0.285   0.281   0.274   0.282   0.284   0.271   0.284   0.278   0.291   0.288   0.285   0.297   0.293   0.299   0.301   0.280   0.287   0.290   0.294   0.276   0.293   0.285   0.282   0.282   0.288   0.285   0.281   0.280   0.274   0.271   0.275   0.277   0.292   0.307   0.302
   121.90    0.277   0.277   0.279   0.272   0.285   0.286   0.281   0.272   0.283   0.285   0.281   0.281   0.296   0.295   0.284   0.278   0.276   0.289   0.285   0.279   0.281   0.288   0.277   0.270   0.274   0.286   0.284   0.282   0.280   0.294   0.300   0.289   0.287   0.290   0.303
   117.25    0.278   0.285   0.278   0.284   0.301   0.290   0.287   0.283   0.278   0.292   0.286   0.285   0.293   0.277   0.291   0.301   0.290   0.280   0.277   0.270   0.281   0.282   0.282   0.280   0.279   0.288   0.285   0.276   0.277   0.283   0.291   0.303   0.300   0.298   0.300
   112.60    0.275   0.284   0.277   0.287   0.297   0.299   0.291   0.285   0.287   0.297   0.293   0.288   0.293   0.278   0.285   0.287   0.286   0.276   0.276   0.271   0.272   0.277   0.277   0.283   0.273   0.278   0.275   0.270   0.289   0.287   0.295   0.299   0.306   0.313   0.293
   107.95    0.271   0.275   0.273   0.286   0.300   0.297   0.294   0.279   0.280   0.302   0.294   0.294   0.284   0.288   0.286   0.285   0.276   0.281   0.284   0.279   0.283   0.270   0.273   0.270   0.275   0.277   0.282   0.283   0.297   0.280   0.285   0.299   0.302   0.317   0.313
   103.30    0.273   0.283   0.280   0.290   0.292   0.291   0.291   0.289   0.293   0.284   0.291   0.292   0.282   0.282   0.289   0.290   0.300   0.289   0.289   0.283   0.275   0.260   0.262   0.264   0.274   0.269   0.276   0.275   0.276   0.274   0.279   0.293   0.297   0.316   0.324
    98.65    0.271   0.277   0.280   0.296   0.301   0.287   0.302   0.298   0.288   0.280   0.285   0.293   0.287   0.278   0.284   0.287   0.280   0.277   0.285   0.292   0.285   0.279   0.268   0.273   0.264   0.273   0.288   0.280   0.281   0.279   0.279   0.269   0.300   0.310   0.315
    94.00    0.280   0.284   0.276   0.280   0.287   0.296   0.303   0.296   0.282   0.280   0.286   0.286   0.297   0.285   0.277   0.279   0.283   0.273   0.277   0.287   0.279   0.280   0.267   0.278   0.279   0.267   0.280   0.283   0.280   0.290   0.299   0.292   0.301   0.291   0.311
    89.35    0.280   0.277   0.283   0.282   0.290   0.302   0.297   0.298   0.283   0.291   0.297   0.309   0.299   0.292   0.292   0.281   0.282   0.275   0.281   0.288   0.291   0.286   0.280   0.276   0.282   0.273   0.265   0.274   0.286   0.300   0.301   0.305   0.306   0.317   0.303
    84.70    0.285   0.282   0.293   0.301   0.295   0.291   0.299   0.289   0.287   0.294   0.290   0.295   0.296   0.293   0.308   0.298   0.293   0.287   0.281   0.279   0.285   0.292   0.274   0.271   0.281   0.283   0.283   0.275   0.286   0.296   0.300   0.304   0.305   0.307   0.302
    80.05    0.280   0.285   0.281   0.300   0.284   0.277   0.287   0.289   0.279   0.288   0.295   0.291   0.297   0.301   0.309   0.296   0.290   0.284   0.302   0.292   0.290   0.293   0.277   0.274   0.282   0.289   0.276   0.287   0.283   0.298   0.298   0.294   0.308   0.305   0.303
    75.40    0.295   0.294   0.287   0.285   0.289   0.277   0.281   0.283   0.279   0.284   0.285   0.293   0.293   0.296   0.301   0.287   0.289   0.295   0.307   0.296   0.289   0.289   0.275   0.279   0.274   0.289   0.278   0.289   0.285   0.292   0.296   0.295   0.293   0.293   0.303
    70.75    0.294   0.294   0.283   0.285   0.288   0.286   0.293   0.282   0.286   0.287   0.294   0.294   0.285   0.284   0.289   0.287   0.289   0.302   0.307   0.294   0.296   0.294   0.296   0.288   0.284   0.273   0.293   0.291   0.297   0.302   0.302   0.292   0.289   0.291   0.290
    66.10    0.299   0.299   0.296   0.297   0.285   0.286   0.285   0.287   0.294   0.288   0.283   0.283   0.288   0.283   0.286   0.281   0.288   0.298   0.296   0.293   0.291   0.293   0.291   0.284   0.273   0.279   0.283   0.295   0.296   0.295   0.300   0.290   0.292   0.301   0.290
    61.45    0.307   0.299   0.292   0.281   0.284   0.287   0.283   0.279   0.291   0.287   0.278   0.287   0.293   0.296   0.280   0.284   0.291   0.307   0.301   0.297   0.284   0.297   0.288   0.280   0.286   0.278   0.281   0.291   0.293   0.279   0.286   0.281   0.288   0.288   0.278
    56.80    0.306   0.293   0.283   0.282   0.279   0.280   0.291   0.294   0.295   0.287   0.299   0.289   0.287   0.297   0.286   0.290   0.295   0.287   0.287   0.288   0.294   0.299   0.295   0.283   0.289   0.267   0.270   0.273   0.299   0.287   0.286   0.276   0.280   0.284   0.282
    52.15    0.297   0.300   0.293   0.288   0.279   0.279   0.277   0.290   0.305   0.298   0.298   0.299   0.285   0.290   0.296   0.294   0.294   0.292   0.289   0.279   0.287   0.292   0.286   0.287   0.281   0.270   0.267   0.278   0.293   0.293   0.283   0.282   0.281   0.280   0.275
    47.50    0.295   0.299   0.296   0.286   0.280   0.281   0.283   0.300   0.304   0.298   0.287   0.293   0.284   0.286   0.287   0.291   0.293   0.287   0.286   0.281   0.281   0.285   0.278   0.282   0.278   0.282   0.282   0.280   0.292   0.293   0.290   0.286   0.282   0.284   0.279
    42.85    0.290   0.292   0.290   0.289   0.279   0.287   0.299   0.292   0.299   0.287   0.275   0.287   0.291   0.288   0.286   0.282   0.302   0.301   0.287   0.290   0.285   0.279   0.273   0.276   0.283   0.283   0.286   0.287   0.294   0.291   0.283   0.278   0.277   0.275   0.286
    38.20    0.289   0.299   0.297   0.303   0.283   0.290   0.292   0.293   0.285   0.288   0.285   0.282   0.291   0.283   0.282   0.281   0.290   0.297   0.279   0.286   0.279   0.280   0.270   0.279   0.286   0.292   0.296   0.291   0.294   0.283   0.288   0.285   0.278   0.272   0.285
    33.55    0.291   0.293   0.301   0.296   0.300   0.294   0.290   0.286   0.281   0.275   0.273   0.275   0.291   0.297   0.281   0.282   0.297   0.293   0.284   0.284   0.290   0.288   0.281   0.285   0.288   0.294   0.305   0.298   0.290   0.279   0.275   0.273   0.268   0.271   0.282
    28.90    0.281   0.285   0.291   0.295   0.285   0.299   0.293   0.279   0.285   0.281   0.281   0.278   0.276   0.285   0.275   0.284   0.280   0.298   0.294   0.293   0.283   0.286   0.289   0.294   0.305   0.313   0.305   0.301   0.290   0.290   0.286   0.271   0.272   0.274   0.273
    24.25    0.283   0.271   0.276   0.280   0.290   0.295   0.292   0.288   0.283   0.278   0.275   0.276   0.277   0.279   0.281   0.284   0.290   0.290   0.301   0.295   0.293   0.293   0.302   0.295   0.286   0.306   0.309   0.304   0.293   0.286   0.276   0.276   0.273   0.288   0.278
    19.60    0.276   0.276   0.271   0.283   0.287   0.282   0.290   0.279   0.277   0.287   0.285   0.284   0.275   0.286   0.277   0.297   0.292   0.287   0.298   0.299   0.290   0.294   0.306   0.314   0.296   0.299   0.291   0.299   0.294   0.288   0.282   0.282   0.272   0.282   0.276
    14.95    0.282   0.271   0.273   0.281   0.288   0.301   0.299   0.275   0.275   0.289   0.296   0.290   0.290   0.298   0.301   0.298   0.290   0.283   0.289   0.282   0.294   0.292   0.301   0.313   0.312   0.309   0.297   0.300   0.298   0.288   0.294   0.284   0.275   0.270   0.269
    10.30    0.276   0.275   0.281   0.286   0.287   0.296   0.287   0.277   0.279   0.277   0.292   0.299   0.304   0.306   0.309   0.296   0.294   0.297   0.289   0.281   0.286   0.285   0.291   0.306   0.307   0.304   0.300   0.287   0.294   0.297   0.291   0.288   0.286   0.284   0.279
     5.65    0.275   0.292   0.288   0.282   0.276   0.286   0.293   0.280   0.284   0.286   0.296   0.299   0.307   0.302   0.298   0.308   0.295   0.301   0.294   0.286   0.280   0.279   0.304   0.307   0.307   0.298   0.282   0.289   0.285   0.293   0.290   0.286   0.296   0.293   0.288
     1.00    0.291   0.287   0.283   0.286   0.271   0.269   0.283   0.284   0.282   0.288   0.286   0.293   0.294   0.294   0.282   0.294   0.294   0.283   0.294   0.288   0.295   0.295   0.302   0.297   0.288   0.287   0.292   0.287   0.282   0.285   0.291   0.280   0.285   0.291   0.285

   Mean standard deviation across all grid points:
      u component:    0.566 m/s
      v component:    0.441 m/s
      w component:    0.288 m/s


U-component (X) statistics from the interpolated hub point:

   Mean =   9.9913 m/s
   TI   =   5.4764 %


Processing complete.  6202.2 CPU seconds used.
