
This summary file was generated by TurbSim (from OpenFAST-v3.5.3) on 20-Apr-2025 at 04:51:54.


Runtime Options:

-228636811  Random seed #1
    RANLUX  Type of random number generator
         F  Output binary HH turbulence parameters?
         F  Output formatted turbulence parameters?
         F  Output AeroDyn HH files?
         T  Output AeroDyn FF files?
         F  Output BLADED FF files?
         F  Output tower data?
         F  Output HAWC FF files?
         F  Output formatted FF files?
         T  Output coherent turbulence time step file?
 0 -  NONE  IEC turbulence models scaled to exact specified standard deviation


Turbine/Model Specifications:

        37  Vertical grid-point matrix dimension
        35  Horizontal grid-point matrix dimension
     0.250  Time step [seconds]
   900.000  Analysis time [seconds]
   900.000  Usable output time [seconds]
    89.350  Hub height [m]
   167.400  Grid height [m]
   158.100  Grid width [m]
     0.000  Vertical flow angle [degrees]
     0.000  Horizontal flow angle [degrees]


Meteorological Boundary Conditions:

    TIMESR  User-input time series spectral model
       N/A  IEC standard
       N/A  IEC turbulence characteristic
       N/A  IEC turbulence type
       N/A  IEC Extreme Turbulence Model (ETM) "c" parameter [m/s]
       PL   Wind profile type
    90.000  Reference height [m]
    10.000  Reference wind speed [m/s]
       N/A  Jet height [m]
     0.120  Power law exponent
     0.030  Surface roughness length [m]


Non-IEC Meteorological Boundary Conditions:

    45.000  Site latitude [degrees]
     0.050  Gradient Richardson number
     0.480  Friction or shear velocity [m/s]
       N/A  Mixing layer depth [m]
       N/A  Mean hub u'w' Reynolds stress
       N/A  Mean hub u'v' Reynolds stress
       N/A  Mean hub v'w' Reynolds stress


Spatial Coherence Models:

       IEC  u-component coherence model
       IEC  v-component coherence model
       IEC  w-component coherence model
(   12.000, 0.353E-03)  u-component coherence parameters
(   12.000, 0.353E-03)  v-component coherence parameters
(   12.000, 0.353E-03)  w-component coherence parameters
       N/A  Coherence exponent


Coherent Turbulence Scaling Parameters:

.\EventData
            Name of the path containing the coherent turbulence data files
       les  Type of coherent turbulence data files
     1.000  Disturbance scale (ratio of wave height to rotor diameter)
     0.500  Fractional location of tower centerline from right
     0.500  Fractional location of hub height from the bottom of the dataset
    30.000  Minimum start time for coherent structures [seconds]


Profiles from User-Defined Time-Series Input:

  Height   Wind Speed   Horizontal Angle   Vertical Angle
   (m)        (m/s)          (deg)              (deg)    
  ------   ----------   ----------------   --------------
   94.00      10.00          -0.63               -0.00


You have requested that the following file(s) be generated:

   /kfs3/scratch/agupta/Projects/RL_Incubator/FinalRuns_Veer/Seed4/./FFSim_Seed4/Cond00_v10.0_PL0.12_TI6.0/Case1_wdirp02/Seed_1/TurbSim/HighT6.bts (AeroDyn/TurbSim full-field wind file)


Turbulence Simulation Scaling Parameter Summary:

   Turbulence model used                            =  User-input time series
   Gradient Richardson number                       =    0.050
   Monin-Obukhov (M-O) z/L parameter                =    0.067
   Monin-Obukhov (M-O) length scale                 = 1340.250 m
   Mean wind speed at hub height                    =    9.991 m/s

   Wind profile type                                =  Power law
   Power law exponent                               =    0.120
   Mean shear across rotor disk                     =    0.019 (m/s)/m
   Assumed rotor diameter                           =  158.100 m
   Surface roughness length                         =    0.030 m

   Nyquist frequency of turbulent wind field        =    2.000 Hz

   Number of time steps in the FFT                  =     3600
   Number of time steps output                      =     3600
   Number of points simulated                       =     1296


Mean Flow Angles:

   Vertical   =   0.0 degrees
   Horizontal =   0.0 degrees

Mean Wind Speed Profile:

   Height    Wind Speed   Horizontal Angle  Vertical Angle  U-comp (X)   V-comp (Y)   W-comp (Z)
     (m)        (m/s)         (degrees)       (degrees)       (m/s)        (m/s)        (m/s)   
   ------    ----------   ----------------  --------------  ----------   ----------   ----------
    168.4       10.78            0.00            0.00         10.78         0.00         0.00
    163.7       10.74            0.00            0.00         10.74         0.00         0.00
    159.1       10.71            0.00            0.00         10.71         0.00         0.00
    154.4       10.67            0.00            0.00         10.67         0.00         0.00
    149.8       10.63            0.00            0.00         10.63         0.00         0.00
    145.1       10.59            0.00            0.00         10.59         0.00         0.00
    140.5       10.55            0.00            0.00         10.55         0.00         0.00
    135.8       10.51            0.00            0.00         10.51         0.00         0.00
    131.2       10.46            0.00            0.00         10.46         0.00         0.00
    126.5       10.42            0.00            0.00         10.42         0.00         0.00
    121.9       10.37            0.00            0.00         10.37         0.00         0.00
    117.2       10.32            0.00            0.00         10.32         0.00         0.00
    112.6       10.27            0.00            0.00         10.27         0.00         0.00
    107.9       10.22            0.00            0.00         10.22         0.00         0.00
    103.3       10.17            0.00            0.00         10.17         0.00         0.00
     98.6       10.11            0.00            0.00         10.11         0.00         0.00
     94.0       10.05            0.00            0.00         10.05         0.00         0.00
     89.3        9.99            0.00            0.00          9.99         0.00         0.00
     84.7        9.93            0.00            0.00          9.93         0.00         0.00
     80.0        9.86            0.00            0.00          9.86         0.00         0.00
     75.4        9.79            0.00            0.00          9.79         0.00         0.00
     70.7        9.72            0.00            0.00          9.72         0.00         0.00
     66.1        9.64            0.00            0.00          9.64         0.00         0.00
     61.4        9.55            0.00            0.00          9.55         0.00         0.00
     56.8        9.46            0.00            0.00          9.46         0.00         0.00
     52.1        9.37            0.00            0.00          9.37         0.00         0.00
     47.5        9.26            0.00            0.00          9.26         0.00         0.00
     42.8        9.15            0.00            0.00          9.15         0.00         0.00
     38.2        9.02            0.00            0.00          9.02         0.00         0.00
     33.5        8.88            0.00            0.00          8.88         0.00         0.00
     28.9        8.73            0.00            0.00          8.73         0.00         0.00
     24.2        8.54            0.00            0.00          8.54         0.00         0.00
     19.6        8.33            0.00            0.00          8.33         0.00         0.00
     14.9        8.06            0.00            0.00          8.06         0.00         0.00
     10.3        7.71            0.00            0.00          7.71         0.00         0.00
      5.6        7.17            0.00            0.00          7.17         0.00         0.00
      1.0        5.83            0.00            0.00          5.83         0.00         0.00


Harvested Random Seeds after Generation of the Random Numbers:

     65026800 K 1
            0 K 2


Hub-Height Simulated Turbulence Statistical Summary:

   Type of Wind        Min (m/s)   Mean (m/s)    Max (m/s)  Sigma (m/s)       TI (%)
   ----------------    ---------   ----------    ---------  -----------       ------
   Longitudinal (u)         8.30         9.99        11.71        0.596        5.970
   Lateral (v)             -1.41         0.00         2.13        0.466        4.665
   Vertical (w)            -0.97        -0.00         0.94        0.277        2.774
   U component              8.30         9.99        11.71        0.596        5.970
   V component             -1.41         0.00         2.13        0.466        4.665
   W component             -0.97        -0.00         0.94        0.277        2.774
   Horizontal (U&V)         8.30        10.00        11.71        0.594        5.938
   Total                    8.31        10.01        11.72        0.594        5.932

                       Min Reynolds     Mean Reynolds    Max Reynolds    Correlation
   Product             Stress (m/s)^2   Stress (m/s)^2   Stress (m/s)^2  Coefficient
   ----------------    --------------   --------------   --------------  -----------
   u'w'                     -0.831             0.008             1.075         0.051
   u'v'                     -1.818            -0.042             1.161        -0.150
   v'w'                     -0.789            -0.001             0.743        -0.008


   Friction Velocity (Ustar)  =      0.092 m/s
   Maximum Instantaneous TKE  =      2.280 (m/s)^2
   Maximum Instantaneous CTKE =      0.915 (m/s)^2


Grid Point Variance Summary:

   Y-coord  -79.05  -74.40  -69.75  -65.10  -60.45  -55.80  -51.15  -46.50  -41.85  -37.20  -32.55  -27.90  -23.25  -18.60  -13.95   -9.30   -4.65    0.00    4.65    9.30   13.95   18.60   23.25   27.90   32.55   37.20   41.85   46.50   51.15   55.80   60.45   65.10   69.75   74.40   79.05

   Height   Standard deviation at grid points for the u component:
   168.40    0.564   0.539   0.549   0.553   0.607   0.660   0.701   0.660   0.714   0.781   0.768   0.787   0.763   0.716   0.764   0.731   0.663   0.663   0.678   0.726   0.766   0.756   0.766   0.792   0.820   0.836   0.835   0.862   0.811   0.765   0.814   0.764   0.767   0.738   0.703
   163.75    0.605   0.574   0.583   0.578   0.674   0.693   0.750   0.749   0.749   0.784   0.818   0.784   0.798   0.802   0.778   0.729   0.696   0.657   0.704   0.752   0.708   0.722   0.766   0.729   0.780   0.826   0.812   0.840   0.823   0.835   0.751   0.720   0.778   0.748   0.684
   159.10    0.633   0.622   0.641   0.646   0.699   0.724   0.785   0.792   0.738   0.778   0.775   0.764   0.792   0.774   0.783   0.732   0.691   0.643   0.715   0.755   0.662   0.654   0.701   0.758   0.767   0.766   0.771   0.753   0.807   0.778   0.778   0.755   0.746   0.731   0.711
   154.45    0.608   0.639   0.655   0.651   0.697   0.717   0.734   0.795   0.768   0.733   0.742   0.778   0.748   0.748   0.747   0.677   0.677   0.725   0.663   0.712   0.691   0.704   0.690   0.728   0.727   0.727   0.727   0.767   0.765   0.757   0.753   0.752   0.746   0.727   0.773
   149.80    0.661   0.664   0.636   0.622   0.619   0.614   0.683   0.741   0.696   0.773   0.740   0.734   0.781   0.766   0.727   0.708   0.698   0.741   0.678   0.723   0.753   0.704   0.703   0.766   0.753   0.703   0.701   0.721   0.708   0.655   0.701   0.716   0.719   0.702   0.718
   145.15    0.603   0.594   0.613   0.616   0.609   0.633   0.598   0.668   0.681   0.726   0.702   0.747   0.763   0.735   0.727   0.727   0.680   0.740   0.701   0.711   0.721   0.745   0.744   0.740   0.806   0.795   0.748   0.755   0.682   0.653   0.640   0.714   0.699   0.707   0.688
   140.50    0.558   0.548   0.537   0.570   0.568   0.592   0.602   0.608   0.659   0.698   0.667   0.707   0.762   0.739   0.703   0.685   0.749   0.761   0.764   0.741   0.766   0.750   0.748   0.775   0.736   0.767   0.724   0.686   0.679   0.662   0.647   0.661   0.672   0.664   0.657
   135.85    0.603   0.581   0.546   0.553   0.600   0.598   0.606   0.605   0.646   0.691   0.714   0.743   0.687   0.757   0.723   0.748   0.803   0.772   0.801   0.781   0.727   0.734   0.706   0.731   0.713   0.726   0.714   0.672   0.619   0.635   0.676   0.668   0.674   0.670   0.634
   131.20    0.622   0.626   0.622   0.597   0.571   0.538   0.589   0.563   0.564   0.661   0.724   0.749   0.686   0.743   0.787   0.783   0.765   0.748   0.725   0.771   0.724   0.717   0.716   0.692   0.689   0.670   0.650   0.650   0.607   0.656   0.660   0.662   0.669   0.642   0.620
   126.55    0.654   0.634   0.692   0.643   0.624   0.596   0.574   0.576   0.567   0.681   0.694   0.677   0.663   0.711   0.756   0.747   0.747   0.669   0.689   0.724   0.678   0.692   0.636   0.663   0.626   0.637   0.657   0.638   0.675   0.666   0.622   0.660   0.649   0.695   0.642
   121.90    0.630   0.667   0.684   0.610   0.586   0.566   0.558   0.571   0.607   0.682   0.687   0.655   0.701   0.732   0.709   0.758   0.735   0.685   0.675   0.694   0.652   0.672   0.622   0.632   0.621   0.650   0.637   0.655   0.615   0.665   0.664   0.664   0.651   0.691   0.669
   117.25    0.666   0.672   0.646   0.588   0.575   0.618   0.610   0.636   0.621   0.649   0.638   0.631   0.646   0.655   0.683   0.681   0.680   0.682   0.626   0.612   0.616   0.644   0.651   0.619   0.623   0.644   0.638   0.625   0.598   0.595   0.657   0.662   0.661   0.691   0.659
   112.60    0.642   0.661   0.610   0.593   0.607   0.599   0.648   0.625   0.577   0.578   0.623   0.585   0.601   0.588   0.619   0.573   0.592   0.619   0.626   0.556   0.588   0.590   0.630   0.640   0.650   0.625   0.609   0.585   0.583   0.558   0.557   0.655   0.615   0.639   0.611
   107.95    0.712   0.683   0.654   0.607   0.573   0.611   0.625   0.617   0.609   0.565   0.585   0.598   0.578   0.572   0.599   0.536   0.552   0.631   0.620   0.584   0.593   0.662   0.663   0.634   0.618   0.605   0.609   0.599   0.589   0.558   0.560   0.636   0.638   0.678   0.594
   103.30    0.737   0.671   0.648   0.645   0.595   0.611   0.615   0.642   0.610   0.579   0.583   0.586   0.627   0.582   0.542   0.560   0.608   0.602   0.609   0.586   0.632   0.637   0.646   0.654   0.633   0.612   0.605   0.579   0.569   0.551   0.568   0.604   0.618   0.636   0.666
    98.65    0.739   0.746   0.724   0.711   0.695   0.648   0.666   0.644   0.602   0.562   0.598   0.588   0.598   0.546   0.503   0.534   0.599   0.603   0.617   0.635   0.638   0.620   0.625   0.614   0.574   0.591   0.611   0.570   0.568   0.560   0.579   0.593   0.612   0.626   0.639
    94.00    0.795   0.810   0.743   0.774   0.684   0.692   0.618   0.683   0.609   0.589   0.593   0.606   0.579   0.593   0.518   0.506   0.545   0.619   0.580   0.611   0.627   0.614   0.606   0.571   0.550   0.586   0.592   0.583   0.556   0.539   0.582   0.579   0.608   0.572   0.606
    89.35    0.770   0.779   0.733   0.711   0.677   0.713   0.644   0.668   0.647   0.597   0.547   0.545   0.544   0.554   0.591   0.562   0.577   0.596   0.621   0.573   0.582   0.585   0.590   0.574   0.623   0.624   0.583   0.572   0.570   0.577   0.645   0.586   0.638   0.611   0.621
    84.70    0.759   0.755   0.723   0.739   0.680   0.704   0.629   0.646   0.624   0.593   0.567   0.583   0.600   0.627   0.631   0.623   0.587   0.615   0.594   0.579   0.549   0.564   0.551   0.590   0.602   0.645   0.635   0.617   0.600   0.635   0.619   0.658   0.607   0.601   0.586
    80.05    0.714   0.772   0.719   0.760   0.732   0.688   0.654   0.651   0.615   0.617   0.548   0.547   0.600   0.674   0.653   0.623   0.606   0.602   0.626   0.635   0.610   0.556   0.571   0.559   0.618   0.599   0.636   0.638   0.610   0.604   0.617   0.624   0.613   0.625   0.632
    75.40    0.727   0.726   0.741   0.713   0.730   0.685   0.678   0.668   0.639   0.587   0.588   0.580   0.622   0.644   0.624   0.611   0.576   0.632   0.648   0.678   0.612   0.555   0.541   0.559   0.610   0.620   0.667   0.622   0.606   0.554   0.542   0.606   0.618   0.599   0.545
    70.75    0.685   0.706   0.724   0.713   0.688   0.665   0.661   0.698   0.687   0.647   0.611   0.627   0.608   0.630   0.585   0.599   0.574   0.563   0.594   0.632   0.601   0.575   0.588   0.555   0.607   0.646   0.627   0.605   0.594   0.626   0.593   0.604   0.597   0.531   0.537
    66.10    0.632   0.670   0.633   0.662   0.673   0.652   0.666   0.670   0.669   0.618   0.596   0.622   0.620   0.640   0.633   0.608   0.556   0.551   0.534   0.595   0.611   0.583   0.602   0.634   0.653   0.675   0.639   0.651   0.648   0.622   0.649   0.616   0.587   0.541   0.514
    61.45    0.603   0.605   0.658   0.628   0.648   0.613   0.636   0.637   0.598   0.568   0.590   0.619   0.641   0.649   0.633   0.587   0.568   0.565   0.559   0.553   0.584   0.589   0.621   0.619   0.618   0.613   0.639   0.678   0.692   0.666   0.685   0.619   0.557   0.525   0.516
    56.80    0.620   0.612   0.668   0.684   0.600   0.601   0.617   0.624   0.602   0.570   0.603   0.636   0.606   0.616   0.629   0.633   0.602   0.560   0.582   0.569   0.598   0.578   0.600   0.558   0.607   0.630   0.654   0.712   0.708   0.717   0.645   0.637   0.577   0.543   0.532
    52.15    0.658   0.685   0.672   0.643   0.637   0.630   0.558   0.572   0.569   0.573   0.587   0.590   0.577   0.622   0.653   0.678   0.610   0.589   0.600   0.606   0.610   0.613   0.594   0.543   0.575   0.589   0.644   0.690   0.671   0.617   0.620   0.600   0.589   0.578   0.534
    47.50    0.732   0.716   0.668   0.627   0.605   0.608   0.600   0.546   0.534   0.556   0.551   0.621   0.573   0.624   0.611   0.623   0.581   0.596   0.583   0.581   0.626   0.618   0.580   0.551   0.571   0.631   0.619   0.636   0.624   0.577   0.601   0.616   0.604   0.563   0.556
    42.85    0.699   0.737   0.667   0.636   0.588   0.577   0.608   0.565   0.506   0.527   0.562   0.594   0.605   0.590   0.608   0.591   0.630   0.634   0.645   0.632   0.588   0.621   0.555   0.606   0.607   0.598   0.641   0.631   0.640   0.587   0.552   0.593   0.595   0.568   0.512
    38.20    0.697   0.725   0.678   0.612   0.581   0.589   0.614   0.567   0.523   0.530   0.537   0.527   0.583   0.581   0.586   0.556   0.605   0.640   0.609   0.576   0.548   0.594   0.558   0.602   0.602   0.615   0.642   0.631   0.619   0.603   0.555   0.544   0.540   0.503   0.544
    33.55    0.707   0.701   0.680   0.662   0.600   0.608   0.641   0.612   0.556   0.526   0.526   0.535   0.548   0.533   0.573   0.546   0.589   0.625   0.605   0.519   0.539   0.580   0.596   0.584   0.658   0.653   0.656   0.623   0.579   0.583   0.567   0.566   0.523   0.522   0.493
    28.90    0.664   0.670   0.682   0.627   0.639   0.604   0.614   0.625   0.577   0.552   0.520   0.534   0.567   0.509   0.528   0.540   0.530   0.569   0.560   0.513   0.568   0.539   0.583   0.594   0.600   0.660   0.635   0.621   0.601   0.610   0.604   0.623   0.575   0.513   0.485
    24.25    0.621   0.650   0.620   0.627   0.601   0.642   0.610   0.589   0.594   0.543   0.544   0.559   0.534   0.522   0.547   0.546   0.568   0.540   0.520   0.536   0.547   0.538   0.544   0.576   0.614   0.644   0.635   0.627   0.616   0.664   0.644   0.628   0.613   0.546   0.510
    19.60    0.646   0.621   0.575   0.564   0.596   0.613   0.647   0.640   0.565   0.517   0.559   0.536   0.510   0.577   0.550   0.568   0.542   0.509   0.492   0.500   0.536   0.521   0.562   0.559   0.596   0.645   0.668   0.612   0.615   0.634   0.668   0.637   0.608   0.591   0.519
    14.95    0.637   0.587   0.599   0.598   0.595   0.583   0.601   0.606   0.556   0.558   0.594   0.562   0.572   0.576   0.553   0.565   0.552   0.502   0.496   0.494   0.517   0.509   0.517   0.546   0.635   0.641   0.649   0.646   0.632   0.627   0.643   0.649   0.587   0.543   0.533
    10.30    0.598   0.592   0.567   0.557   0.566   0.508   0.574   0.547   0.534   0.586   0.556   0.555   0.611   0.594   0.581   0.576   0.545   0.486   0.496   0.509   0.514   0.512   0.518   0.575   0.594   0.619   0.672   0.640   0.650   0.564   0.579   0.563   0.592   0.551   0.557
     5.65    0.560   0.598   0.633   0.550   0.550   0.504   0.542   0.516   0.579   0.593   0.562   0.589   0.593   0.556   0.619   0.562   0.563   0.566   0.472   0.476   0.516   0.487   0.570   0.594   0.587   0.600   0.619   0.639   0.586   0.573   0.549   0.563   0.586   0.566   0.508
     1.00    0.527   0.579   0.578   0.532   0.517   0.523   0.565   0.521   0.557   0.544   0.545   0.531   0.542   0.609   0.610   0.602   0.584   0.554   0.479   0.496   0.468   0.514   0.565   0.619   0.579   0.609   0.592   0.637   0.633   0.566   0.612   0.620   0.576   0.531   0.546

   Height   Standard deviation at grid points for the v component:
   168.40    0.396   0.398   0.413   0.433   0.435   0.439   0.464   0.460   0.470   0.458   0.456   0.456   0.466   0.441   0.435   0.441   0.446   0.446   0.462   0.442   0.446   0.461   0.470   0.466   0.490   0.494   0.515   0.487   0.472   0.483   0.469   0.467   0.472   0.473   0.466
   163.75    0.390   0.400   0.409   0.432   0.440   0.440   0.452   0.455   0.455   0.456   0.458   0.460   0.463   0.448   0.434   0.428   0.436   0.429   0.447   0.441   0.440   0.465   0.463   0.467   0.445   0.483   0.463   0.485   0.488   0.458   0.453   0.467   0.465   0.447   0.447
   159.10    0.413   0.400   0.398   0.427   0.418   0.429   0.443   0.459   0.440   0.448   0.431   0.435   0.453   0.436   0.422   0.439   0.441   0.430   0.440   0.462   0.449   0.439   0.432   0.456   0.432   0.457   0.460   0.463   0.491   0.472   0.458   0.450   0.462   0.446   0.445
   154.45    0.411   0.434   0.404   0.396   0.414   0.428   0.415   0.439   0.456   0.439   0.419   0.422   0.418   0.427   0.428   0.440   0.427   0.448   0.429   0.441   0.445   0.434   0.429   0.453   0.466   0.465   0.469   0.457   0.485   0.470   0.470   0.487   0.486   0.462   0.428
   149.80    0.432   0.438   0.416   0.404   0.408   0.411   0.403   0.438   0.442   0.421   0.404   0.417   0.412   0.429   0.442   0.445   0.441   0.434   0.431   0.412   0.422   0.434   0.451   0.467   0.463   0.471   0.492   0.478   0.469   0.482   0.451   0.475   0.462   0.473   0.427
   145.15    0.432   0.427   0.433   0.397   0.421   0.408   0.426   0.444   0.426   0.429   0.423   0.431   0.420   0.419   0.448   0.447   0.451   0.411   0.417   0.403   0.397   0.408   0.424   0.458   0.459   0.458   0.458   0.468   0.475   0.498   0.469   0.469   0.471   0.447   0.428
   140.50    0.398   0.421   0.422   0.411   0.417   0.409   0.425   0.421   0.427   0.430   0.431   0.437   0.441   0.443   0.476   0.458   0.459   0.440   0.435   0.394   0.400   0.423   0.414   0.425   0.434   0.448   0.449   0.456   0.449   0.460   0.463   0.481   0.451   0.444   0.440
   135.85    0.386   0.425   0.424   0.418   0.411   0.400   0.404   0.399   0.415   0.421   0.428   0.421   0.441   0.440   0.457   0.462   0.451   0.434   0.438   0.436   0.431   0.409   0.410   0.412   0.437   0.440   0.463   0.471   0.450   0.465   0.462   0.457   0.456   0.441   0.432
   131.20    0.398   0.400   0.416   0.410   0.409   0.400   0.400   0.403   0.404   0.415   0.427   0.419   0.431   0.443   0.441   0.443   0.448   0.451   0.432   0.438   0.424   0.411   0.426   0.418   0.432   0.431   0.445   0.463   0.448   0.454   0.464   0.482   0.474   0.463   0.436
   126.55    0.396   0.372   0.381   0.395   0.400   0.399   0.417   0.397   0.414   0.424   0.408   0.409   0.407   0.424   0.428   0.426   0.449   0.446   0.415   0.437   0.450   0.429   0.417   0.429   0.449   0.451   0.454   0.438   0.461   0.457   0.470   0.466   0.475   0.464   0.460
   121.90    0.385   0.380   0.378   0.391   0.399   0.406   0.407   0.416   0.426   0.426   0.409   0.416   0.395   0.423   0.420   0.423   0.435   0.421   0.403   0.452   0.456   0.429   0.417   0.426   0.426   0.447   0.434   0.464   0.482   0.480   0.452   0.463   0.456   0.440   0.457
   117.25    0.378   0.379   0.378   0.403   0.396   0.407   0.406   0.394   0.406   0.407   0.397   0.392   0.400   0.425   0.430   0.445   0.463   0.462   0.435   0.429   0.444   0.418   0.444   0.458   0.438   0.444   0.456   0.487   0.494   0.467   0.443   0.467   0.465   0.439   0.457
   112.60    0.393   0.389   0.386   0.400   0.390   0.406   0.385   0.379   0.375   0.405   0.380   0.384   0.407   0.436   0.422   0.441   0.470   0.451   0.432   0.447   0.456   0.436   0.451   0.468   0.451   0.444   0.448   0.475   0.494   0.458   0.465   0.454   0.460   0.463   0.456
   107.95    0.386   0.385   0.390   0.421   0.406   0.410   0.393   0.382   0.382   0.372   0.376   0.379   0.413   0.417   0.410   0.437   0.438   0.442   0.446   0.441   0.438   0.455   0.451   0.457   0.475   0.444   0.468   0.466   0.477   0.467   0.441   0.455   0.465   0.469   0.449
   103.30    0.394   0.401   0.400   0.438   0.405   0.416   0.417   0.402   0.395   0.384   0.375   0.409   0.424   0.410   0.431   0.438   0.447   0.455   0.454   0.448   0.461   0.474   0.465   0.464   0.482   0.489   0.478   0.470   0.476   0.483   0.450   0.449   0.469   0.467   0.454
    98.65    0.405   0.391   0.410   0.433   0.415   0.439   0.415   0.416   0.421   0.417   0.404   0.430   0.412   0.426   0.434   0.442   0.473   0.458   0.453   0.460   0.478   0.483   0.471   0.479   0.487   0.493   0.491   0.485   0.496   0.489   0.477   0.472   0.447   0.453   0.427
    94.00    0.410   0.429   0.421   0.428   0.418   0.406   0.408   0.399   0.436   0.420   0.410   0.425   0.407   0.421   0.423   0.447   0.456   0.452   0.469   0.454   0.467   0.485   0.482   0.477   0.490   0.488   0.505   0.490   0.477   0.477   0.458   0.457   0.463   0.455   0.440
    89.35    0.424   0.435   0.430   0.420   0.430   0.419   0.394   0.427   0.440   0.417   0.415   0.399   0.404   0.417   0.428   0.419   0.453   0.466   0.460   0.476   0.455   0.482   0.492   0.495   0.512   0.489   0.503   0.484   0.466   0.467   0.468   0.471   0.457   0.435   0.442
    84.70    0.448   0.421   0.442   0.439   0.447   0.452   0.446   0.450   0.452   0.426   0.432   0.403   0.424   0.440   0.427   0.428   0.442   0.445   0.466   0.474   0.452   0.469   0.469   0.472   0.488   0.485   0.494   0.478   0.482   0.470   0.458   0.461   0.456   0.444   0.452
    80.05    0.448   0.452   0.447   0.445   0.452   0.480   0.472   0.459   0.490   0.472   0.468   0.444   0.451   0.444   0.447   0.462   0.458   0.467   0.467   0.442   0.453   0.477   0.471   0.448   0.452   0.464   0.465   0.486   0.500   0.477   0.447   0.457   0.448   0.462   0.454
    75.40    0.469   0.459   0.480   0.470   0.467   0.475   0.459   0.485   0.498   0.471   0.477   0.486   0.457   0.452   0.478   0.479   0.461   0.475   0.459   0.480   0.464   0.461   0.472   0.453   0.476   0.473   0.485   0.500   0.489   0.454   0.446   0.437   0.451   0.461   0.457
    70.75    0.462   0.475   0.476   0.503   0.487   0.469   0.468   0.482   0.484   0.468   0.486   0.494   0.477   0.474   0.488   0.465   0.453   0.466   0.474   0.459   0.452   0.453   0.447   0.478   0.487   0.485   0.491   0.480   0.496   0.461   0.462   0.455   0.443   0.448   0.438
    66.10    0.464   0.467   0.486   0.474   0.483   0.471   0.455   0.455   0.474   0.457   0.480   0.474   0.489   0.485   0.483   0.487   0.480   0.493   0.478   0.464   0.460   0.468   0.463   0.464   0.466   0.438   0.444   0.452   0.475   0.479   0.452   0.448   0.450   0.453   0.455
    61.45    0.452   0.456   0.473   0.474   0.471   0.478   0.457   0.442   0.449   0.477   0.491   0.494   0.496   0.490   0.492   0.491   0.472   0.509   0.487   0.464   0.462   0.441   0.465   0.453   0.462   0.425   0.438   0.465   0.473   0.473   0.475   0.453   0.463   0.476   0.450
    56.80    0.479   0.483   0.482   0.480   0.484   0.490   0.463   0.468   0.460   0.455   0.483   0.502   0.507   0.509   0.512   0.501   0.496   0.487   0.501   0.473   0.465   0.439   0.434   0.460   0.457   0.444   0.444   0.431   0.457   0.476   0.462   0.488   0.469   0.464   0.450
    52.15    0.493   0.507   0.477   0.493   0.507   0.506   0.458   0.465   0.438   0.447   0.485   0.473   0.499   0.486   0.497   0.497   0.512   0.490   0.505   0.491   0.487   0.461   0.444   0.429   0.452   0.456   0.461   0.426   0.458   0.470   0.460   0.469   0.471   0.471   0.466
    47.50    0.489   0.495   0.491   0.503   0.506   0.490   0.470   0.465   0.470   0.468   0.468   0.464   0.468   0.486   0.523   0.517   0.493   0.507   0.482   0.475   0.471   0.445   0.433   0.407   0.452   0.454   0.450   0.451   0.485   0.469   0.468   0.473   0.464   0.465   0.432
    42.85    0.485   0.490   0.498   0.520   0.506   0.487   0.474   0.480   0.471   0.446   0.456   0.458   0.482   0.494   0.511   0.495   0.478   0.490   0.487   0.482   0.482   0.447   0.422   0.422   0.450   0.455   0.433   0.451   0.487   0.476   0.462   0.485   0.473   0.456   0.441
    38.20    0.467   0.475   0.494   0.519   0.487   0.475   0.488   0.467   0.485   0.457   0.458   0.463   0.465   0.483   0.479   0.493   0.479   0.479   0.459   0.458   0.454   0.457   0.440   0.416   0.442   0.456   0.437   0.447   0.468   0.444   0.437   0.460   0.469   0.449   0.443
    33.55    0.485   0.483   0.493   0.507   0.507   0.509   0.485   0.496   0.489   0.474   0.467   0.455   0.473   0.475   0.464   0.452   0.453   0.470   0.468   0.456   0.450   0.449   0.438   0.416   0.430   0.435   0.450   0.452   0.454   0.443   0.449   0.463   0.449   0.427   0.420
    28.90    0.475   0.466   0.480   0.468   0.496   0.506   0.515   0.479   0.482   0.466   0.458   0.465   0.441   0.447   0.433   0.458   0.451   0.445   0.445   0.436   0.437   0.454   0.452   0.446   0.452   0.445   0.460   0.464   0.459   0.449   0.446   0.457   0.440   0.420   0.432
    24.25    0.467   0.475   0.490   0.462   0.465   0.506   0.507   0.494   0.483   0.451   0.454   0.437   0.438   0.435   0.417   0.428   0.431   0.426   0.441   0.436   0.435   0.449   0.469   0.474   0.464   0.477   0.462   0.465   0.446   0.459   0.445   0.443   0.435   0.429   0.447
    19.60    0.464   0.469   0.480   0.462   0.467   0.472   0.476   0.472   0.475   0.438   0.447   0.459   0.462   0.444   0.425   0.426   0.408   0.433   0.447   0.433   0.440   0.449   0.475   0.494   0.474   0.487   0.460   0.467   0.470   0.454   0.440   0.436   0.413   0.437   0.438
    14.95    0.457   0.468   0.498   0.494   0.481   0.473   0.473   0.477   0.486   0.458   0.438   0.427   0.426   0.444   0.444   0.428   0.424   0.427   0.449   0.446   0.451   0.484   0.501   0.492   0.497   0.470   0.459   0.455   0.475   0.464   0.449   0.434   0.450   0.455   0.444
    10.30    0.463   0.485   0.491   0.486   0.484   0.483   0.483   0.475   0.468   0.481   0.424   0.412   0.424   0.415   0.439   0.459   0.466   0.445   0.463   0.450   0.473   0.476   0.501   0.492   0.488   0.477   0.479   0.476   0.502   0.492   0.471   0.470   0.465   0.464   0.445
     5.65    0.455   0.475   0.482   0.479   0.480   0.465   0.475   0.455   0.437   0.452   0.425   0.417   0.410   0.441   0.440   0.457   0.452   0.470   0.463   0.472   0.501   0.489   0.508   0.487   0.479   0.481   0.491   0.495   0.506   0.506   0.483   0.507   0.496   0.469   0.439
     1.00    0.456   0.462   0.452   0.460   0.441   0.456   0.449   0.431   0.435   0.445   0.441   0.431   0.424   0.431   0.444   0.454   0.459   0.476   0.473   0.476   0.506   0.481   0.478   0.498   0.501   0.495   0.494   0.498   0.500   0.511   0.481   0.479   0.477   0.473   0.466

   Height   Standard deviation at grid points for the w component:
   168.40    0.295   0.285   0.267   0.271   0.274   0.273   0.277   0.269   0.269   0.271   0.266   0.276   0.284   0.281   0.275   0.280   0.289   0.290   0.290   0.287   0.282   0.286   0.276   0.278   0.267   0.285   0.270   0.269   0.269   0.287   0.285   0.278   0.276   0.288   0.293
   163.75    0.286   0.280   0.272   0.266   0.265   0.268   0.269   0.269   0.274   0.268   0.276   0.272   0.277   0.277   0.280   0.277   0.286   0.305   0.297   0.291   0.282   0.277   0.284   0.276   0.272   0.284   0.286   0.275   0.274   0.282   0.280   0.279   0.295   0.298   0.297
   159.10    0.282   0.285   0.276   0.275   0.264   0.263   0.267   0.261   0.268   0.274   0.270   0.267   0.278   0.281   0.280   0.283   0.285   0.287   0.295   0.285   0.287   0.285   0.279   0.286   0.286   0.278   0.280   0.281   0.272   0.278   0.284   0.275   0.301   0.307   0.293
   154.45    0.284   0.273   0.267   0.268   0.273   0.262   0.269   0.273   0.262   0.261   0.265   0.261   0.273   0.277   0.277   0.275   0.283   0.283   0.303   0.279   0.274   0.274   0.284   0.282   0.273   0.278   0.273   0.272   0.279   0.278   0.266   0.278   0.291   0.299   0.305
   149.80    0.283   0.272   0.265   0.277   0.266   0.262   0.260   0.266   0.280   0.274   0.268   0.270   0.262   0.269   0.286   0.285   0.287   0.288   0.294   0.271   0.279   0.272   0.282   0.282   0.281   0.271   0.264   0.268   0.281   0.282   0.279   0.273   0.280   0.282   0.280
   145.15    0.281   0.274   0.267   0.276   0.272   0.262   0.269   0.278   0.272   0.273   0.270   0.266   0.271   0.286   0.284   0.285   0.287   0.278   0.278   0.264   0.264   0.271   0.281   0.275   0.274   0.279   0.262   0.269   0.276   0.272   0.283   0.281   0.283   0.279   0.276
   140.50    0.267   0.274   0.267   0.276   0.268   0.264   0.267   0.275   0.276   0.263   0.260   0.269   0.273   0.279   0.276   0.277   0.288   0.283   0.273   0.279   0.266   0.273   0.283   0.285   0.287   0.284   0.275   0.279   0.277   0.275   0.278   0.285   0.278   0.284   0.276
   135.85    0.269   0.272   0.272   0.273   0.272   0.271   0.268   0.263   0.272   0.260   0.261   0.276   0.277   0.270   0.277   0.278   0.271   0.280   0.274   0.279   0.278   0.284   0.289   0.293   0.293   0.289   0.274   0.286   0.274   0.273   0.284   0.283   0.270   0.275   0.278
   131.20    0.268   0.282   0.269   0.272   0.270   0.271   0.264   0.265   0.267   0.268   0.268   0.270   0.279   0.269   0.273   0.283   0.275   0.272   0.267   0.274   0.274   0.284   0.293   0.289   0.293   0.278   0.286   0.293   0.291   0.277   0.276   0.275   0.282   0.277   0.284
   126.55    0.276   0.272   0.275   0.282   0.281   0.265   0.278   0.264   0.275   0.267   0.269   0.278   0.272   0.283   0.290   0.278   0.279   0.278   0.271   0.275   0.285   0.286   0.290   0.289   0.284   0.280   0.277   0.294   0.287   0.265   0.273   0.268   0.275   0.282   0.279
   121.90    0.264   0.267   0.270   0.271   0.279   0.273   0.274   0.264   0.272   0.270   0.271   0.274   0.277   0.281   0.275   0.272   0.264   0.273   0.277   0.275   0.288   0.293   0.281   0.291   0.285   0.277   0.290   0.297   0.300   0.291   0.291   0.278   0.271   0.273   0.272
   117.25    0.260   0.266   0.273   0.280   0.286   0.274   0.284   0.278   0.272   0.278   0.273   0.274   0.286   0.270   0.279   0.275   0.274   0.266   0.273   0.282   0.295   0.300   0.302   0.287   0.288   0.284   0.287   0.288   0.287   0.281   0.286   0.288   0.287   0.274   0.274
   112.60    0.252   0.263   0.262   0.274   0.281   0.279   0.273   0.276   0.282   0.284   0.273   0.276   0.280   0.280   0.282   0.281   0.275   0.272   0.281   0.287   0.285   0.281   0.287   0.296   0.298   0.279   0.278   0.279   0.283   0.279   0.279   0.276   0.281   0.277   0.268
   107.95    0.259   0.260   0.264   0.281   0.286   0.273   0.280   0.276   0.282   0.289   0.282   0.283   0.271   0.271   0.280   0.278   0.272   0.278   0.271   0.288   0.294   0.291   0.290   0.296   0.287   0.292   0.284   0.279   0.293   0.272   0.270   0.276   0.269   0.278   0.283
   103.30    0.268   0.271   0.270   0.283   0.290   0.291   0.287   0.280   0.290   0.286   0.291   0.283   0.277   0.280   0.279   0.281   0.279   0.272   0.263   0.285   0.292   0.292   0.285   0.294   0.300   0.287   0.280   0.273   0.273   0.274   0.262   0.265   0.268   0.288   0.296
    98.65    0.269   0.267   0.266   0.280   0.287   0.289   0.294   0.287   0.282   0.270   0.276   0.285   0.277   0.289   0.282   0.290   0.282   0.276   0.272   0.289   0.293   0.285   0.284   0.295   0.287   0.286   0.287   0.276   0.282   0.270   0.266   0.249   0.276   0.290   0.302
    94.00    0.272   0.269   0.264   0.273   0.281   0.287   0.288   0.283   0.275   0.269   0.274   0.272   0.283   0.292   0.275   0.280   0.280   0.277   0.285   0.284   0.284   0.279   0.274   0.289   0.288   0.273   0.280   0.279   0.270   0.283   0.280   0.278   0.287   0.284   0.302
    89.35    0.273   0.267   0.276   0.281   0.282   0.290   0.298   0.292   0.285   0.285   0.291   0.297   0.297   0.302   0.297   0.287   0.278   0.277   0.274   0.288   0.291   0.283   0.298   0.285   0.288   0.273   0.265   0.272   0.281   0.291   0.294   0.291   0.293   0.305   0.295
    84.70    0.279   0.273   0.286   0.286   0.283   0.275   0.292   0.279   0.278   0.290   0.282   0.280   0.293   0.293   0.299   0.293   0.285   0.276   0.270   0.284   0.286   0.293   0.286   0.289   0.288   0.282   0.280   0.275   0.289   0.291   0.296   0.296   0.294   0.308   0.306
    80.05    0.273   0.271   0.280   0.291   0.293   0.277   0.284   0.280   0.267   0.281   0.282   0.278   0.282   0.288   0.295   0.281   0.280   0.264   0.281   0.277   0.290   0.295   0.283   0.281   0.284   0.284   0.279   0.284   0.286   0.288   0.298   0.291   0.303   0.305   0.309
    75.40    0.276   0.282   0.283   0.285   0.286   0.279   0.273   0.275   0.276   0.276   0.275   0.277   0.280   0.292   0.290   0.279   0.279   0.277   0.285   0.285   0.272   0.282   0.277   0.280   0.278   0.289   0.284   0.287   0.276   0.287   0.292   0.290   0.293   0.295   0.311
    70.75    0.277   0.284   0.275   0.278   0.279   0.277   0.284   0.272   0.274   0.277   0.292   0.294   0.281   0.289   0.282   0.277   0.283   0.287   0.288   0.282   0.277   0.285   0.296   0.287   0.286   0.277   0.293   0.285   0.282   0.293   0.296   0.290   0.290   0.296   0.303
    66.10    0.290   0.285   0.277   0.279   0.268   0.269   0.278   0.271   0.287   0.284   0.279   0.276   0.285   0.285   0.275   0.271   0.275   0.292   0.275   0.284   0.271   0.275   0.288   0.284   0.280   0.279   0.288   0.286   0.280   0.289   0.293   0.297   0.297   0.305   0.310
    61.45    0.290   0.281   0.269   0.271   0.273   0.275   0.279   0.269   0.277   0.285   0.290   0.280   0.291   0.294   0.273   0.274   0.289   0.300   0.293   0.287   0.270   0.278   0.281   0.282   0.282   0.275   0.285   0.289   0.293   0.293   0.303   0.302   0.297   0.308   0.303
    56.80    0.291   0.277   0.269   0.270   0.273   0.277   0.281   0.279   0.280   0.291   0.298   0.282   0.293   0.300   0.279   0.272   0.283   0.280   0.280   0.276   0.282   0.285   0.282   0.291   0.286   0.266   0.281   0.280   0.287   0.291   0.305   0.291   0.291   0.302   0.299
    52.15    0.277   0.288   0.280   0.270   0.269   0.269   0.266   0.280   0.297   0.299   0.292   0.296   0.288   0.290   0.292   0.279   0.275   0.281   0.284   0.282   0.284   0.284   0.276   0.290   0.293   0.282   0.279   0.269   0.288   0.296   0.308   0.290   0.285   0.297   0.287
    47.50    0.280   0.282   0.283   0.272   0.268   0.269   0.267   0.281   0.288   0.291   0.287   0.291   0.280   0.273   0.286   0.287   0.277   0.279   0.279   0.279   0.282   0.293   0.277   0.291   0.289   0.291   0.282   0.273   0.280   0.290   0.293   0.284   0.294   0.295   0.295
    42.85    0.273   0.277   0.277   0.277   0.266   0.273   0.272   0.272   0.281   0.277   0.274   0.282   0.277   0.280   0.280   0.285   0.292   0.288   0.280   0.280   0.285   0.283   0.274   0.283   0.284   0.282   0.287   0.281   0.275   0.283   0.285   0.275   0.282   0.284   0.291
    38.20    0.273   0.273   0.278   0.290   0.272   0.280   0.273   0.272   0.271   0.278   0.277   0.276   0.283   0.284   0.285   0.277   0.277   0.285   0.271   0.276   0.269   0.280   0.275   0.277   0.275   0.286   0.284   0.284   0.279   0.281   0.292   0.285   0.271   0.270   0.282
    33.55    0.274   0.277   0.280   0.278   0.284   0.276   0.269   0.266   0.262   0.259   0.269   0.275   0.291   0.286   0.282   0.280   0.292   0.277   0.271   0.279   0.282   0.288   0.284   0.277   0.280   0.284   0.288   0.288   0.283   0.280   0.287   0.276   0.267   0.268   0.276
    28.90    0.271   0.269   0.277   0.270   0.270   0.277   0.273   0.265   0.275   0.275   0.285   0.287   0.285   0.289   0.288   0.284   0.272   0.284   0.283   0.290   0.281   0.292   0.287   0.296   0.300   0.303   0.292   0.298   0.287   0.296   0.291   0.271   0.266   0.270   0.259
    24.25    0.270   0.266   0.274   0.266   0.267   0.272   0.274   0.269   0.272   0.270   0.287   0.281   0.288   0.291   0.290   0.287   0.283   0.281   0.295   0.286   0.286   0.296   0.299   0.303   0.290   0.297   0.307   0.300   0.286   0.288   0.280   0.274   0.273   0.278   0.268
    19.60    0.261   0.264   0.260   0.263   0.265   0.260   0.273   0.267   0.271   0.280   0.285   0.287   0.283   0.296   0.289   0.293   0.294   0.280   0.289   0.298   0.288   0.288   0.304   0.301   0.296   0.295   0.294   0.293   0.291   0.291   0.281   0.276   0.270   0.278   0.265
    14.95    0.265   0.257   0.254   0.262   0.272   0.267   0.270   0.265   0.271   0.284   0.286   0.282   0.288   0.295   0.298   0.295   0.289   0.284   0.283   0.282   0.295   0.299   0.303   0.311   0.305   0.298   0.293   0.292   0.295   0.292   0.288   0.268   0.266   0.264   0.262
    10.30    0.260   0.262   0.261   0.275   0.264   0.282   0.274   0.268   0.270   0.276   0.278   0.285   0.293   0.291   0.294   0.290   0.285   0.291   0.287   0.275   0.286   0.287   0.299   0.305   0.301   0.295   0.288   0.289   0.292   0.295   0.278   0.270   0.267   0.277   0.277
     5.65    0.270   0.279   0.269   0.272   0.267   0.270   0.286   0.276   0.279   0.280   0.290   0.293   0.296   0.291   0.287   0.290   0.285   0.290   0.287   0.275   0.280   0.283   0.307   0.306   0.302   0.290   0.283   0.291   0.277   0.288   0.280   0.269   0.270   0.277   0.280
     1.00    0.288   0.281   0.277   0.272   0.268   0.266   0.282   0.281   0.282   0.285   0.291   0.296   0.300   0.290   0.283   0.293   0.285   0.278   0.291   0.284   0.301   0.295   0.295   0.289   0.288   0.280   0.288   0.281   0.273   0.285   0.282   0.279   0.275   0.280   0.276

   Mean standard deviation across all grid points:
      u component:    0.631 m/s
      v component:    0.452 m/s
      w component:    0.281 m/s


U-component (X) statistics from the interpolated hub point:

   Mean =   9.9913 m/s
   TI   =   5.9698 %


Processing complete.  6383.7 CPU seconds used.
