
This summary file was generated by TurbSim (from OpenFAST-v3.5.3) on 20-Apr-2025 at 09:20:54.


Runtime Options:

 376932526  Random seed #1
    RANLUX  Type of random number generator
         F  Output binary HH turbulence parameters?
         F  Output formatted turbulence parameters?
         F  Output AeroDyn HH files?
         T  Output AeroDyn FF files?
         F  Output BLADED FF files?
         F  Output tower data?
         F  Output HAWC FF files?
         F  Output formatted FF files?
         T  Output coherent turbulence time step file?
 0 -  NONE  IEC turbulence models scaled to exact specified standard deviation


Turbine/Model Specifications:

        37  Vertical grid-point matrix dimension
        35  Horizontal grid-point matrix dimension
     0.250  Time step [seconds]
   900.000  Analysis time [seconds]
   900.000  Usable output time [seconds]
    89.350  Hub height [m]
   167.400  Grid height [m]
   158.100  Grid width [m]
     0.000  Vertical flow angle [degrees]
     0.000  Horizontal flow angle [degrees]


Meteorological Boundary Conditions:

    TIMESR  User-input time series spectral model
       N/A  IEC standard
       N/A  IEC turbulence characteristic
       N/A  IEC turbulence type
       N/A  IEC Extreme Turbulence Model (ETM) "c" parameter [m/s]
       PL   Wind profile type
    90.000  Reference height [m]
    10.000  Reference wind speed [m/s]
       N/A  Jet height [m]
     0.120  Power law exponent
     0.030  Surface roughness length [m]


Non-IEC Meteorological Boundary Conditions:

    45.000  Site latitude [degrees]
     0.050  Gradient Richardson number
     0.480  Friction or shear velocity [m/s]
       N/A  Mixing layer depth [m]
       N/A  Mean hub u'w' Reynolds stress
       N/A  Mean hub u'v' Reynolds stress
       N/A  Mean hub v'w' Reynolds stress


Spatial Coherence Models:

       IEC  u-component coherence model
       IEC  v-component coherence model
       IEC  w-component coherence model
(   12.000, 0.353E-03)  u-component coherence parameters
(   12.000, 0.353E-03)  v-component coherence parameters
(   12.000, 0.353E-03)  w-component coherence parameters
       N/A  Coherence exponent


Coherent Turbulence Scaling Parameters:

.\EventData
            Name of the path containing the coherent turbulence data files
       les  Type of coherent turbulence data files
     1.000  Disturbance scale (ratio of wave height to rotor diameter)
     0.500  Fractional location of tower centerline from right
     0.500  Fractional location of hub height from the bottom of the dataset
    30.000  Minimum start time for coherent structures [seconds]


Profiles from User-Defined Time-Series Input:

  Height   Wind Speed   Horizontal Angle   Vertical Angle
   (m)        (m/s)          (deg)              (deg)    
  ------   ----------   ----------------   --------------
   94.00      10.00          -0.63               -0.00


You have requested that the following file(s) be generated:

   /kfs3/scratch/agupta/Projects/RL_Incubator/FinalRuns_Veer/Seed4/./FFSim_Seed4/Cond00_v10.0_PL0.12_TI4.0/Case2_wdirp04/Seed_6/TurbSim/HighT10.bts (AeroDyn/TurbSim full-field wind file)


Turbulence Simulation Scaling Parameter Summary:

   Turbulence model used                            =  User-input time series
   Gradient Richardson number                       =    0.050
   Monin-Obukhov (M-O) z/L parameter                =    0.067
   Monin-Obukhov (M-O) length scale                 = 1340.250 m
   Mean wind speed at hub height                    =    9.991 m/s

   Wind profile type                                =  Power law
   Power law exponent                               =    0.120
   Mean shear across rotor disk                     =    0.019 (m/s)/m
   Assumed rotor diameter                           =  158.100 m
   Surface roughness length                         =    0.030 m

   Nyquist frequency of turbulent wind field        =    2.000 Hz

   Number of time steps in the FFT                  =     3600
   Number of time steps output                      =     3600
   Number of points simulated                       =     1296


Mean Flow Angles:

   Vertical   =   0.0 degrees
   Horizontal =   0.0 degrees

Mean Wind Speed Profile:

   Height    Wind Speed   Horizontal Angle  Vertical Angle  U-comp (X)   V-comp (Y)   W-comp (Z)
     (m)        (m/s)         (degrees)       (degrees)       (m/s)        (m/s)        (m/s)   
   ------    ----------   ----------------  --------------  ----------   ----------   ----------
    168.4       10.78            0.00            0.00         10.78         0.00         0.00
    163.7       10.74            0.00            0.00         10.74         0.00         0.00
    159.1       10.71            0.00            0.00         10.71         0.00         0.00
    154.4       10.67            0.00            0.00         10.67         0.00         0.00
    149.8       10.63            0.00            0.00         10.63         0.00         0.00
    145.1       10.59            0.00            0.00         10.59         0.00         0.00
    140.5       10.55            0.00            0.00         10.55         0.00         0.00
    135.8       10.51            0.00            0.00         10.51         0.00         0.00
    131.2       10.46            0.00            0.00         10.46         0.00         0.00
    126.5       10.42            0.00            0.00         10.42         0.00         0.00
    121.9       10.37            0.00            0.00         10.37         0.00         0.00
    117.2       10.32            0.00            0.00         10.32         0.00         0.00
    112.6       10.27            0.00            0.00         10.27         0.00         0.00
    107.9       10.22            0.00            0.00         10.22         0.00         0.00
    103.3       10.17            0.00            0.00         10.17         0.00         0.00
     98.6       10.11            0.00            0.00         10.11         0.00         0.00
     94.0       10.05            0.00            0.00         10.05         0.00         0.00
     89.3        9.99            0.00            0.00          9.99         0.00         0.00
     84.7        9.93            0.00            0.00          9.93         0.00         0.00
     80.0        9.86            0.00            0.00          9.86         0.00         0.00
     75.4        9.79            0.00            0.00          9.79         0.00         0.00
     70.7        9.72            0.00            0.00          9.72         0.00         0.00
     66.1        9.64            0.00            0.00          9.64         0.00         0.00
     61.4        9.55            0.00            0.00          9.55         0.00         0.00
     56.8        9.46            0.00            0.00          9.46         0.00         0.00
     52.1        9.37            0.00            0.00          9.37         0.00         0.00
     47.5        9.26            0.00            0.00          9.26         0.00         0.00
     42.8        9.15            0.00            0.00          9.15         0.00         0.00
     38.2        9.02            0.00            0.00          9.02         0.00         0.00
     33.5        8.88            0.00            0.00          8.88         0.00         0.00
     28.9        8.73            0.00            0.00          8.73         0.00         0.00
     24.2        8.54            0.00            0.00          8.54         0.00         0.00
     19.6        8.33            0.00            0.00          8.33         0.00         0.00
     14.9        8.06            0.00            0.00          8.06         0.00         0.00
     10.3        7.71            0.00            0.00          7.71         0.00         0.00
      5.6        7.17            0.00            0.00          7.17         0.00         0.00
      1.0        5.83            0.00            0.00          5.83         0.00         0.00


Harvested Random Seeds after Generation of the Random Numbers:

     65026800 K 1
            0 K 2


Hub-Height Simulated Turbulence Statistical Summary:

   Type of Wind        Min (m/s)   Mean (m/s)    Max (m/s)  Sigma (m/s)       TI (%)
   ----------------    ---------   ----------    ---------  -----------       ------
   Longitudinal (u)         9.15         9.99        11.21        0.327        3.278
   Lateral (v)             -1.03         0.00         1.17        0.323        3.235
   Vertical (w)            -0.87        -0.00         0.72        0.194        1.942
   U component              9.15         9.99        11.21        0.327        3.278
   V component             -1.03         0.00         1.17        0.323        3.235
   W component             -0.87        -0.00         0.72        0.194        1.942
   Horizontal (U&V)         9.17        10.00        11.22        0.328        3.282
   Total                    9.17        10.00        11.22        0.328        3.280

                       Min Reynolds     Mean Reynolds    Max Reynolds    Correlation
   Product             Stress (m/s)^2   Stress (m/s)^2   Stress (m/s)^2  Coefficient
   ----------------    --------------   --------------   --------------  -----------
   u'w'                     -0.349            -0.002             0.419        -0.027
   u'v'                     -0.547             0.003             0.644         0.031
   v'w'                     -0.512             0.002             0.330         0.040


   Friction Velocity (Ustar)  =      0.042 m/s
   Maximum Instantaneous TKE  =      0.858 (m/s)^2
   Maximum Instantaneous CTKE =      0.379 (m/s)^2


Grid Point Variance Summary:

   Y-coord  -79.05  -74.40  -69.75  -65.10  -60.45  -55.80  -51.15  -46.50  -41.85  -37.20  -32.55  -27.90  -23.25  -18.60  -13.95   -9.30   -4.65    0.00    4.65    9.30   13.95   18.60   23.25   27.90   32.55   37.20   41.85   46.50   51.15   55.80   60.45   65.10   69.75   74.40   79.05

   Height   Standard deviation at grid points for the u component:
   168.40    0.316   0.302   0.312   0.310   0.310   0.332   0.351   0.352   0.348   0.356   0.349   0.339   0.336   0.337   0.341   0.319   0.329   0.338   0.336   0.349   0.349   0.336   0.344   0.380   0.347   0.338   0.353   0.339   0.342   0.331   0.320   0.294   0.296   0.299   0.292
   163.75    0.329   0.314   0.315   0.328   0.329   0.339   0.343   0.336   0.342   0.342   0.362   0.354   0.371   0.360   0.346   0.319   0.309   0.319   0.342   0.348   0.340   0.342   0.358   0.373   0.357   0.337   0.358   0.352   0.340   0.318   0.314   0.321   0.302   0.302   0.305
   159.10    0.329   0.311   0.312   0.329   0.337   0.359   0.343   0.359   0.366   0.340   0.357   0.348   0.372   0.362   0.342   0.322   0.309   0.325   0.346   0.338   0.337   0.342   0.368   0.364   0.367   0.349   0.354   0.360   0.342   0.326   0.317   0.330   0.324   0.345   0.331
   154.45    0.316   0.311   0.302   0.316   0.330   0.350   0.338   0.329   0.350   0.321   0.324   0.336   0.351   0.342   0.343   0.352   0.336   0.332   0.326   0.321   0.325   0.332   0.352   0.337   0.361   0.362   0.345   0.360   0.347   0.334   0.327   0.319   0.332   0.334   0.325
   149.80    0.322   0.312   0.308   0.317   0.324   0.335   0.348   0.315   0.334   0.312   0.332   0.315   0.344   0.337   0.330   0.313   0.339   0.315   0.312   0.299   0.330   0.343   0.353   0.354   0.371   0.353   0.339   0.342   0.365   0.333   0.337   0.345   0.352   0.330   0.316
   145.15    0.308   0.311   0.310   0.325   0.324   0.345   0.340   0.314   0.310   0.314   0.320   0.325   0.317   0.331   0.319   0.343   0.327   0.316   0.314   0.304   0.320   0.328   0.355   0.377   0.384   0.373   0.367   0.364   0.344   0.351   0.354   0.336   0.352   0.346   0.319
   140.50    0.300   0.309   0.312   0.329   0.341   0.348   0.340   0.317   0.311   0.323   0.317   0.321   0.325   0.329   0.334   0.344   0.314   0.340   0.350   0.344   0.342   0.336   0.339   0.348   0.384   0.388   0.378   0.368   0.339   0.335   0.347   0.340   0.343   0.323   0.329
   135.85    0.300   0.308   0.302   0.307   0.340   0.348   0.346   0.330   0.301   0.292   0.315   0.312   0.306   0.337   0.336   0.322   0.337   0.335   0.356   0.360   0.357   0.362   0.356   0.359   0.389   0.376   0.376   0.361   0.350   0.357   0.358   0.344   0.344   0.329   0.298
   131.20    0.305   0.307   0.306   0.326   0.319   0.325   0.333   0.341   0.314   0.305   0.317   0.326   0.312   0.309   0.332   0.329   0.339   0.346   0.339   0.348   0.362   0.362   0.359   0.359   0.367   0.379   0.371   0.356   0.342   0.349   0.351   0.346   0.337   0.345   0.313
   126.55    0.324   0.304   0.296   0.338   0.331   0.319   0.326   0.341   0.320   0.306   0.327   0.335   0.311   0.319   0.314   0.314   0.325   0.330   0.332   0.325   0.346   0.372   0.374   0.389   0.372   0.366   0.356   0.349   0.353   0.346   0.336   0.333   0.334   0.327   0.310
   121.90    0.363   0.343   0.325   0.324   0.337   0.334   0.342   0.335   0.342   0.314   0.346   0.351   0.344   0.333   0.313   0.304   0.320   0.320   0.332   0.346   0.359   0.342   0.354   0.390   0.379   0.353   0.333   0.330   0.344   0.347   0.350   0.337   0.306   0.320   0.324
   117.25    0.350   0.329   0.332   0.333   0.328   0.353   0.336   0.361   0.342   0.330   0.339   0.340   0.321   0.335   0.320   0.297   0.309   0.314   0.319   0.332   0.340   0.342   0.332   0.366   0.367   0.353   0.312   0.335   0.332   0.359   0.349   0.340   0.334   0.338   0.315
   112.60    0.336   0.320   0.328   0.336   0.354   0.354   0.358   0.351   0.328   0.301   0.325   0.325   0.305   0.312   0.313   0.284   0.311   0.302   0.308   0.330   0.327   0.333   0.338   0.350   0.351   0.348   0.302   0.314   0.308   0.350   0.346   0.345   0.337   0.339   0.319
   107.95    0.342   0.319   0.339   0.335   0.341   0.352   0.359   0.349   0.305   0.315   0.324   0.333   0.306   0.307   0.291   0.305   0.324   0.322   0.332   0.333   0.338   0.320   0.302   0.317   0.333   0.332   0.325   0.311   0.329   0.346   0.320   0.319   0.315   0.323   0.300
   103.30    0.337   0.347   0.348   0.339   0.346   0.349   0.341   0.328   0.318   0.307   0.321   0.320   0.329   0.320   0.306   0.319   0.325   0.326   0.327   0.334   0.340   0.312   0.294   0.291   0.318   0.327   0.304   0.313   0.337   0.329   0.309   0.314   0.319   0.312   0.308
    98.65    0.352   0.342   0.334   0.350   0.377   0.360   0.335   0.339   0.336   0.323   0.321   0.321   0.350   0.349   0.338   0.343   0.335   0.344   0.343   0.342   0.316   0.293   0.288   0.290   0.313   0.326   0.316   0.320   0.319   0.319   0.314   0.318   0.304   0.286   0.303
    94.00    0.357   0.336   0.327   0.336   0.375   0.349   0.335   0.318   0.331   0.314   0.318   0.328   0.337   0.343   0.347   0.328   0.332   0.339   0.339   0.318   0.319   0.279   0.290   0.296   0.321   0.314   0.324   0.324   0.323   0.315   0.318   0.312   0.285   0.287   0.306
    89.35    0.331   0.325   0.322   0.334   0.356   0.337   0.322   0.316   0.309   0.313   0.328   0.318   0.327   0.319   0.316   0.320   0.335   0.327   0.334   0.334   0.299   0.302   0.296   0.307   0.315   0.316   0.317   0.316   0.329   0.350   0.342   0.336   0.316   0.325   0.322
    84.70    0.327   0.318   0.321   0.333   0.327   0.327   0.331   0.313   0.313   0.309   0.301   0.320   0.304   0.301   0.307   0.315   0.332   0.347   0.339   0.325   0.309   0.303   0.298   0.316   0.308   0.308   0.310   0.328   0.323   0.340   0.339   0.331   0.325   0.321   0.318
    80.05    0.320   0.338   0.338   0.361   0.338   0.341   0.329   0.300   0.314   0.340   0.323   0.330   0.305   0.311   0.329   0.324   0.331   0.338   0.316   0.328   0.308   0.294   0.301   0.293   0.301   0.314   0.325   0.346   0.338   0.339   0.345   0.341   0.316   0.311   0.315
    75.40    0.323   0.338   0.367   0.352   0.336   0.316   0.325   0.311   0.307   0.338   0.313   0.322   0.320   0.312   0.331   0.334   0.321   0.323   0.297   0.325   0.297   0.315   0.320   0.299   0.314   0.321   0.353   0.341   0.344   0.346   0.362   0.342   0.320   0.296   0.303
    70.75    0.364   0.366   0.356   0.332   0.324   0.320   0.333   0.317   0.312   0.320   0.325   0.318   0.325   0.338   0.347   0.330   0.349   0.314   0.319   0.303   0.310   0.298   0.301   0.289   0.317   0.335   0.351   0.339   0.348   0.346   0.359   0.337   0.334   0.317   0.308
    66.10    0.352   0.348   0.352   0.333   0.322   0.323   0.316   0.301   0.312   0.309   0.313   0.318   0.344   0.352   0.338   0.348   0.351   0.345   0.341   0.302   0.319   0.319   0.308   0.292   0.315   0.330   0.339   0.352   0.350   0.389   0.378   0.350   0.331   0.330   0.328
    61.45    0.349   0.347   0.346   0.338   0.319   0.302   0.293   0.295   0.298   0.316   0.327   0.344   0.355   0.350   0.353   0.333   0.333   0.348   0.345   0.344   0.326   0.338   0.304   0.301   0.328   0.342   0.344   0.364   0.358   0.359   0.387   0.371   0.359   0.349   0.336
    56.80    0.334   0.333   0.329   0.326   0.315   0.285   0.292   0.300   0.328   0.340   0.345   0.333   0.341   0.334   0.360   0.340   0.325   0.346   0.353   0.352   0.335   0.345   0.345   0.347   0.342   0.341   0.362   0.360   0.371   0.354   0.368   0.367   0.349   0.333   0.341
    52.15    0.327   0.327   0.326   0.325   0.321   0.298   0.321   0.307   0.328   0.349   0.363   0.342   0.342   0.350   0.355   0.326   0.317   0.334   0.342   0.340   0.335   0.348   0.358   0.353   0.354   0.341   0.354   0.361   0.348   0.339   0.351   0.355   0.343   0.327   0.327
    47.50    0.343   0.318   0.316   0.314   0.323   0.318   0.319   0.329   0.326   0.333   0.343   0.342   0.326   0.344   0.337   0.322   0.312   0.333   0.347   0.336   0.336   0.347   0.338   0.347   0.351   0.339   0.347   0.348   0.331   0.328   0.356   0.346   0.336   0.329   0.314
    42.85    0.346   0.337   0.330   0.307   0.307   0.296   0.296   0.315   0.318   0.316   0.315   0.325   0.322   0.322   0.315   0.321   0.319   0.365   0.370   0.349   0.344   0.324   0.336   0.360   0.368   0.352   0.346   0.354   0.332   0.330   0.359   0.342   0.340   0.323   0.318
    38.20    0.342   0.343   0.345   0.327   0.290   0.283   0.300   0.311   0.309   0.294   0.302   0.306   0.327   0.322   0.300   0.308   0.332   0.338   0.355   0.349   0.342   0.353   0.357   0.360   0.369   0.380   0.356   0.354   0.357   0.357   0.344   0.329   0.322   0.315   0.306
    33.55    0.338   0.347   0.319   0.318   0.300   0.313   0.305   0.308   0.310   0.288   0.292   0.302   0.320   0.320   0.296   0.302   0.325   0.331   0.318   0.312   0.316   0.336   0.341   0.335   0.360   0.365   0.367   0.365   0.369   0.375   0.350   0.332   0.315   0.301   0.294
    28.90    0.326   0.338   0.303   0.310   0.305   0.308   0.308   0.302   0.284   0.292   0.299   0.299   0.318   0.310   0.320   0.302   0.322   0.313   0.301   0.298   0.321   0.325   0.317   0.335   0.320   0.348   0.359   0.357   0.379   0.390   0.370   0.330   0.300   0.309   0.288
    24.25    0.332   0.337   0.333   0.326   0.323   0.310   0.322   0.305   0.293   0.288   0.279   0.302   0.306   0.313   0.319   0.301   0.306   0.314   0.291   0.305   0.315   0.339   0.332   0.332   0.345   0.341   0.341   0.346   0.349   0.384   0.367   0.336   0.319   0.315   0.296
    19.60    0.331   0.335   0.336   0.318   0.323   0.305   0.319   0.323   0.293   0.309   0.315   0.325   0.313   0.345   0.327   0.311   0.313   0.321   0.298   0.327   0.341   0.335   0.354   0.348   0.357   0.347   0.349   0.346   0.348   0.372   0.372   0.343   0.342   0.345   0.327
    14.95    0.349   0.321   0.310   0.302   0.323   0.303   0.332   0.314   0.313   0.304   0.315   0.316   0.349   0.337   0.321   0.303   0.300   0.308   0.316   0.325   0.344   0.334   0.350   0.349   0.363   0.362   0.381   0.359   0.360   0.363   0.347   0.320   0.329   0.319   0.309
    10.30    0.344   0.325   0.320   0.321   0.320   0.309   0.309   0.297   0.312   0.303   0.311   0.331   0.336   0.337   0.341   0.332   0.324   0.311   0.321   0.323   0.341   0.334   0.344   0.342   0.338   0.359   0.355   0.352   0.345   0.354   0.333   0.322   0.309   0.306   0.300
     5.65    0.358   0.338   0.317   0.292   0.305   0.306   0.293   0.319   0.305   0.294   0.309   0.325   0.328   0.336   0.322   0.322   0.305   0.311   0.314   0.313   0.331   0.327   0.324   0.311   0.323   0.342   0.352   0.349   0.343   0.355   0.356   0.322   0.303   0.317   0.308
     1.00    0.352   0.339   0.328   0.325   0.303   0.319   0.323   0.331   0.325   0.312   0.303   0.304   0.315   0.311   0.309   0.296   0.318   0.306   0.312   0.312   0.311   0.337   0.328   0.319   0.328   0.329   0.338   0.334   0.347   0.351   0.354   0.345   0.329   0.321   0.327

   Height   Standard deviation at grid points for the v component:
   168.40    0.328   0.317   0.325   0.320   0.318   0.330   0.347   0.348   0.333   0.306   0.294   0.295   0.294   0.293   0.301   0.302   0.272   0.268   0.286   0.294   0.299   0.294   0.300   0.304   0.310   0.291   0.278   0.286   0.294   0.307   0.290   0.303   0.306   0.327   0.315
   163.75    0.327   0.331   0.311   0.316   0.324   0.313   0.330   0.331   0.328   0.307   0.291   0.294   0.288   0.309   0.319   0.279   0.271   0.268   0.277   0.299   0.302   0.290   0.292   0.300   0.284   0.281   0.292   0.298   0.287   0.277   0.285   0.295   0.302   0.314   0.308
   159.10    0.325   0.333   0.308   0.295   0.304   0.289   0.301   0.311   0.304   0.297   0.290   0.303   0.298   0.293   0.297   0.285   0.274   0.277   0.287   0.295   0.288   0.293   0.292   0.309   0.302   0.286   0.280   0.294   0.285   0.283   0.286   0.285   0.318   0.322   0.319
   154.45    0.311   0.323   0.298   0.321   0.309   0.297   0.290   0.297   0.295   0.284   0.282   0.271   0.298   0.307   0.275   0.287   0.281   0.276   0.264   0.278   0.267   0.272   0.290   0.301   0.304   0.310   0.288   0.300   0.289   0.288   0.283   0.277   0.307   0.306   0.313
   149.80    0.310   0.309   0.320   0.317   0.290   0.313   0.294   0.306   0.287   0.286   0.276   0.273   0.280   0.296   0.280   0.287   0.273   0.264   0.272   0.283   0.274   0.276   0.296   0.315   0.311   0.316   0.304   0.293   0.288   0.283   0.283   0.275   0.272   0.292   0.291
   145.15    0.330   0.325   0.320   0.306   0.285   0.291   0.296   0.309   0.297   0.279   0.284   0.284   0.280   0.270   0.288   0.285   0.275   0.289   0.285   0.280   0.279   0.292   0.311   0.306   0.303   0.304   0.298   0.290   0.308   0.306   0.295   0.282   0.276   0.286   0.295
   140.50    0.354   0.324   0.336   0.300   0.272   0.275   0.291   0.305   0.311   0.298   0.280   0.266   0.263   0.283   0.299   0.303   0.289   0.289   0.270   0.280   0.284   0.294   0.310   0.323   0.322   0.310   0.298   0.295   0.301   0.305   0.305   0.291   0.309   0.311   0.289
   135.85    0.342   0.342   0.321   0.295   0.283   0.287   0.291   0.313   0.300   0.302   0.286   0.262   0.275   0.281   0.297   0.302   0.304   0.307   0.280   0.284   0.290   0.300   0.320   0.314   0.332   0.329   0.310   0.313   0.309   0.330   0.316   0.303   0.307   0.312   0.298
   131.20    0.321   0.308   0.321   0.303   0.291   0.296   0.294   0.300   0.293   0.296   0.277   0.278   0.279   0.286   0.292   0.291   0.306   0.299   0.304   0.295   0.290   0.319   0.326   0.344   0.364   0.340   0.336   0.323   0.324   0.319   0.322   0.312   0.313   0.302   0.293
   126.55    0.315   0.331   0.324   0.318   0.308   0.300   0.292   0.284   0.279   0.299   0.286   0.284   0.278   0.298   0.298   0.282   0.310   0.317   0.320   0.297   0.318   0.341   0.335   0.350   0.345   0.350   0.345   0.359   0.333   0.304   0.313   0.310   0.302   0.290   0.279
   121.90    0.321   0.327   0.322   0.328   0.322   0.309   0.309   0.290   0.281   0.292   0.293   0.278   0.286   0.295   0.302   0.292   0.297   0.311   0.318   0.323   0.333   0.344   0.354   0.352   0.322   0.341   0.333   0.347   0.311   0.294   0.297   0.294   0.285   0.284   0.286
   117.25    0.323   0.319   0.316   0.295   0.312   0.300   0.310   0.298   0.282   0.282   0.273   0.283   0.302   0.311   0.325   0.319   0.326   0.312   0.324   0.331   0.317   0.329   0.324   0.335   0.343   0.347   0.345   0.337   0.324   0.295   0.281   0.282   0.267   0.274   0.280
   112.60    0.322   0.312   0.319   0.320   0.309   0.300   0.302   0.303   0.300   0.289   0.303   0.291   0.308   0.326   0.322   0.320   0.313   0.314   0.317   0.320   0.301   0.296   0.289   0.308   0.322   0.334   0.344   0.335   0.332   0.315   0.276   0.280   0.287   0.285   0.281
   107.95    0.363   0.339   0.323   0.341   0.318   0.313   0.309   0.292   0.305   0.303   0.311   0.322   0.316   0.325   0.338   0.325   0.308   0.314   0.322   0.306   0.303   0.282   0.279   0.305   0.317   0.319   0.333   0.328   0.330   0.308   0.283   0.269   0.272   0.279   0.284
   103.30    0.333   0.338   0.319   0.328   0.329   0.314   0.289   0.287   0.290   0.310   0.314   0.320   0.328   0.334   0.321   0.316   0.320   0.337   0.328   0.322   0.311   0.294   0.297   0.320   0.306   0.314   0.342   0.339   0.329   0.305   0.292   0.299   0.287   0.296   0.306
    98.65    0.322   0.340   0.326   0.338   0.325   0.324   0.319   0.298   0.300   0.298   0.287   0.319   0.313   0.331   0.323   0.323   0.334   0.336   0.308   0.308   0.288   0.303   0.303   0.308   0.315   0.317   0.319   0.318   0.325   0.311   0.301   0.310   0.311   0.313   0.306
    94.00    0.317   0.315   0.325   0.319   0.318   0.330   0.316   0.300   0.307   0.299   0.290   0.303   0.314   0.328   0.340   0.340   0.347   0.313   0.301   0.301   0.294   0.313   0.300   0.297   0.290   0.293   0.309   0.305   0.317   0.316   0.309   0.323   0.309   0.310   0.319
    89.35    0.331   0.317   0.308   0.315   0.303   0.318   0.308   0.320   0.315   0.326   0.304   0.315   0.317   0.328   0.338   0.334   0.344   0.323   0.320   0.316   0.289   0.292   0.292   0.302   0.291   0.298   0.298   0.302   0.294   0.320   0.324   0.322   0.306   0.299   0.305
    84.70    0.348   0.332   0.325   0.307   0.320   0.326   0.352   0.325   0.330   0.323   0.324   0.341   0.337   0.331   0.338   0.343   0.336   0.330   0.299   0.304   0.288   0.301   0.293   0.308   0.309   0.311   0.302   0.305   0.300   0.313   0.308   0.318   0.308   0.312   0.312
    80.05    0.354   0.355   0.335   0.328   0.321   0.338   0.335   0.332   0.354   0.359   0.349   0.344   0.336   0.318   0.318   0.315   0.319   0.310   0.300   0.312   0.307   0.309   0.313   0.322   0.316   0.309   0.298   0.299   0.285   0.308   0.306   0.322   0.298   0.315   0.318
    75.40    0.319   0.327   0.340   0.325   0.337   0.337   0.344   0.350   0.362   0.356   0.346   0.340   0.344   0.339   0.318   0.317   0.302   0.310   0.299   0.310   0.309   0.310   0.307   0.307   0.289   0.305   0.307   0.307   0.310   0.309   0.315   0.303   0.305   0.307   0.306
    70.75    0.328   0.314   0.334   0.321   0.339   0.340   0.335   0.329   0.343   0.324   0.338   0.339   0.346   0.343   0.323   0.319   0.291   0.301   0.308   0.311   0.317   0.317   0.317   0.312   0.315   0.308   0.318   0.323   0.336   0.336   0.326   0.311   0.283   0.294   0.297
    66.10    0.336   0.327   0.329   0.332   0.340   0.327   0.320   0.336   0.334   0.325   0.338   0.352   0.341   0.335   0.313   0.313   0.290   0.286   0.292   0.311   0.311   0.315   0.301   0.314   0.323   0.332   0.326   0.308   0.329   0.342   0.336   0.307   0.288   0.284   0.293
    61.45    0.335   0.320   0.314   0.308   0.320   0.324   0.323   0.312   0.316   0.323   0.323   0.329   0.340   0.323   0.333   0.331   0.311   0.292   0.296   0.312   0.318   0.321   0.328   0.304   0.329   0.334   0.328   0.331   0.318   0.325   0.335   0.301   0.277   0.272   0.284
    56.80    0.326   0.306   0.299   0.287   0.299   0.315   0.311   0.320   0.304   0.298   0.321   0.336   0.324   0.342   0.336   0.335   0.302   0.301   0.301   0.313   0.327   0.324   0.325   0.333   0.315   0.332   0.326   0.325   0.331   0.336   0.327   0.315   0.288   0.281   0.284
    52.15    0.322   0.312   0.281   0.279   0.306   0.317   0.291   0.305   0.304   0.307   0.328   0.339   0.328   0.332   0.348   0.338   0.322   0.327   0.329   0.336   0.325   0.327   0.325   0.321   0.328   0.324   0.341   0.340   0.334   0.338   0.334   0.305   0.282   0.285   0.284
    47.50    0.329   0.317   0.287   0.274   0.279   0.288   0.281   0.296   0.303   0.314   0.306   0.316   0.323   0.309   0.320   0.350   0.336   0.345   0.359   0.346   0.341   0.348   0.336   0.325   0.329   0.319   0.323   0.334   0.320   0.340   0.330   0.308   0.279   0.276   0.261
    42.85    0.309   0.313   0.299   0.292   0.274   0.255   0.258   0.276   0.288   0.302   0.319   0.305   0.328   0.317   0.321   0.334   0.358   0.362   0.351   0.363   0.349   0.340   0.323   0.321   0.332   0.321   0.331   0.332   0.331   0.338   0.308   0.271   0.279   0.283   0.272
    38.20    0.311   0.297   0.296   0.292   0.271   0.265   0.266   0.270   0.281   0.309   0.317   0.299   0.316   0.322   0.325   0.338   0.345   0.345   0.353   0.355   0.361   0.344   0.342   0.326   0.329   0.336   0.326   0.320   0.317   0.315   0.304   0.275   0.281   0.266   0.278
    33.55    0.302   0.303   0.286   0.302   0.286   0.272   0.275   0.280   0.277   0.292   0.303   0.304   0.296   0.311   0.317   0.317   0.328   0.347   0.353   0.361   0.347   0.346   0.332   0.329   0.312   0.319   0.325   0.328   0.309   0.314   0.301   0.285   0.278   0.271   0.278
    28.90    0.299   0.306   0.302   0.303   0.297   0.304   0.284   0.290   0.286   0.280   0.289   0.285   0.301   0.306   0.307   0.304   0.301   0.333   0.334   0.337   0.329   0.334   0.327   0.319   0.324   0.320   0.311   0.310   0.299   0.303   0.311   0.286   0.275   0.283   0.289
    24.25    0.346   0.319   0.316   0.301   0.309   0.310   0.290   0.289   0.309   0.311   0.283   0.290   0.307   0.320   0.312   0.314   0.313   0.326   0.312   0.320   0.333   0.341   0.329   0.333   0.321   0.320   0.319   0.310   0.301   0.305   0.302   0.290   0.288   0.281   0.294
    19.60    0.353   0.321   0.309   0.310   0.307   0.302   0.304   0.306   0.303   0.297   0.288   0.290   0.303   0.315   0.304   0.327   0.323   0.340   0.320   0.308   0.327   0.327   0.331   0.340   0.322   0.299   0.321   0.307   0.294   0.292   0.281   0.286   0.281   0.286   0.286
    14.95    0.335   0.311   0.302   0.307   0.296   0.311   0.309   0.293   0.309   0.307   0.307   0.297   0.288   0.310   0.314   0.317   0.321   0.327   0.329   0.343   0.316   0.326   0.311   0.320   0.325   0.311   0.320   0.324   0.301   0.293   0.289   0.302   0.281   0.289   0.291
    10.30    0.330   0.326   0.319   0.311   0.287   0.293   0.290   0.303   0.301   0.302   0.305   0.299   0.295   0.307   0.326   0.320   0.332   0.334   0.334   0.334   0.342   0.329   0.311   0.311   0.316   0.307   0.323   0.308   0.283   0.289   0.305   0.315   0.299   0.288   0.302
     5.65    0.327   0.335   0.334   0.323   0.307   0.312   0.311   0.309   0.304   0.292   0.296   0.299   0.312   0.318   0.314   0.307   0.329   0.337   0.339   0.328   0.337   0.337   0.329   0.308   0.312   0.313   0.317   0.301   0.295   0.286   0.297   0.295   0.292   0.296   0.313
     1.00    0.331   0.339   0.334   0.320   0.327   0.330   0.332   0.316   0.309   0.314   0.296   0.302   0.318   0.315   0.301   0.324   0.320   0.333   0.343   0.327   0.337   0.342   0.322   0.305   0.303   0.302   0.305   0.305   0.275   0.275   0.288   0.299   0.282   0.296   0.301

   Height   Standard deviation at grid points for the w component:
   168.40    0.195   0.201   0.197   0.194   0.200   0.199   0.201   0.202   0.201   0.185   0.194   0.186   0.190   0.190   0.189   0.187   0.193   0.193   0.186   0.190   0.184   0.188   0.179   0.188   0.191   0.194   0.189   0.189   0.192   0.188   0.180   0.175   0.178   0.182   0.178
   163.75    0.190   0.195   0.193   0.193   0.197   0.198   0.197   0.202   0.199   0.196   0.193   0.186   0.186   0.183   0.178   0.185   0.192   0.192   0.197   0.185   0.180   0.186   0.192   0.188   0.191   0.186   0.191   0.182   0.189   0.193   0.188   0.177   0.181   0.186   0.190
   159.10    0.188   0.197   0.191   0.188   0.193   0.195   0.202   0.203   0.201   0.203   0.195   0.191   0.175   0.182   0.178   0.184   0.183   0.192   0.193   0.191   0.186   0.186   0.192   0.183   0.189   0.191   0.194   0.192   0.194   0.197   0.195   0.192   0.180   0.186   0.182
   154.45    0.183   0.184   0.190   0.184   0.196   0.197   0.203   0.200   0.196   0.197   0.198   0.193   0.185   0.182   0.185   0.182   0.181   0.193   0.189   0.184   0.188   0.193   0.182   0.184   0.192   0.184   0.184   0.187   0.193   0.198   0.188   0.185   0.188   0.184   0.186
   149.80    0.187   0.190   0.188   0.185   0.189   0.199   0.199   0.196   0.203   0.198   0.190   0.178   0.185   0.193   0.188   0.187   0.192   0.183   0.181   0.177   0.187   0.190   0.187   0.188   0.180   0.176   0.179   0.181   0.186   0.188   0.190   0.182   0.171   0.184   0.181
   145.15    0.185   0.185   0.183   0.189   0.189   0.193   0.197   0.197   0.198   0.193   0.187   0.187   0.187   0.185   0.194   0.184   0.185   0.181   0.176   0.181   0.189   0.193   0.188   0.187   0.185   0.192   0.193   0.189   0.185   0.193   0.190   0.181   0.178   0.189   0.184
   140.50    0.182   0.184   0.187   0.188   0.196   0.190   0.199   0.202   0.197   0.198   0.190   0.189   0.189   0.192   0.192   0.192   0.188   0.190   0.182   0.179   0.185   0.187   0.184   0.191   0.197   0.201   0.196   0.188   0.193   0.191   0.189   0.184   0.183   0.182   0.183
   135.85    0.180   0.182   0.190   0.188   0.195   0.189   0.192   0.200   0.202   0.192   0.192   0.195   0.195   0.193   0.189   0.181   0.182   0.187   0.186   0.195   0.187   0.190   0.186   0.186   0.197   0.207   0.199   0.203   0.200   0.188   0.188   0.188   0.184   0.175   0.175
   131.20    0.180   0.188   0.189   0.190   0.198   0.200   0.198   0.201   0.202   0.203   0.192   0.197   0.195   0.198   0.188   0.179   0.187   0.188   0.190   0.192   0.194   0.196   0.196   0.198   0.198   0.196   0.204   0.198   0.202   0.190   0.189   0.183   0.186   0.182   0.179
   126.55    0.191   0.194   0.193   0.196   0.191   0.199   0.204   0.204   0.206   0.208   0.203   0.203   0.204   0.203   0.202   0.196   0.198   0.203   0.194   0.193   0.195   0.205   0.204   0.202   0.198   0.199   0.203   0.204   0.199   0.190   0.189   0.189   0.182   0.181   0.184
   121.90    0.189   0.187   0.189   0.194   0.202   0.196   0.201   0.202   0.203   0.212   0.203   0.202   0.207   0.211   0.216   0.213   0.212   0.211   0.205   0.201   0.205   0.208   0.208   0.202   0.189   0.194   0.203   0.203   0.186   0.186   0.193   0.186   0.191   0.190   0.187
   117.25    0.188   0.184   0.185   0.196   0.194   0.187   0.193   0.199   0.196   0.208   0.212   0.196   0.206   0.217   0.216   0.212   0.206   0.211   0.211   0.217   0.213   0.200   0.198   0.200   0.195   0.198   0.198   0.195   0.193   0.192   0.183   0.188   0.195   0.194   0.185
   112.60    0.190   0.197   0.199   0.195   0.194   0.194   0.194   0.202   0.203   0.193   0.209   0.204   0.208   0.201   0.214   0.211   0.204   0.198   0.213   0.216   0.212   0.201   0.198   0.189   0.191   0.190   0.189   0.191   0.182   0.188   0.182   0.187   0.187   0.190   0.186
   107.95    0.194   0.193   0.198   0.194   0.194   0.194   0.194   0.201   0.204   0.197   0.201   0.201   0.213   0.202   0.212   0.210   0.206   0.204   0.209   0.203   0.197   0.202   0.192   0.193   0.180   0.188   0.181   0.178   0.186   0.190   0.184   0.193   0.187   0.190   0.188
   103.30    0.198   0.198   0.195   0.187   0.189   0.196   0.191   0.199   0.199   0.196   0.193   0.202   0.205   0.206   0.207   0.209   0.214   0.203   0.203   0.196   0.192   0.197   0.196   0.185   0.176   0.182   0.183   0.189   0.186   0.184   0.188   0.194   0.200   0.192   0.192
    98.65    0.199   0.201   0.193   0.191   0.183   0.193   0.199   0.191   0.198   0.198   0.194   0.195   0.204   0.207   0.197   0.205   0.211   0.205   0.197   0.187   0.191   0.193   0.187   0.188   0.180   0.181   0.184   0.186   0.183   0.186   0.188   0.187   0.199   0.195   0.191
    94.00    0.204   0.209   0.189   0.189   0.193   0.192   0.196   0.198   0.198   0.202   0.193   0.196   0.202   0.202   0.206   0.205   0.207   0.197   0.185   0.186   0.185   0.183   0.180   0.182   0.184   0.184   0.183   0.184   0.179   0.189   0.196   0.196   0.194   0.188   0.186
    89.35    0.206   0.210   0.204   0.191   0.194   0.191   0.196   0.197   0.196   0.210   0.204   0.203   0.201   0.208   0.203   0.203   0.201   0.194   0.197   0.192   0.185   0.181   0.177   0.185   0.187   0.188   0.186   0.182   0.181   0.192   0.199   0.190   0.187   0.190   0.193
    84.70    0.211   0.213   0.204   0.199   0.199   0.195   0.191   0.202   0.199   0.200   0.210   0.204   0.195   0.195   0.199   0.193   0.197   0.195   0.190   0.190   0.179   0.173   0.176   0.179   0.187   0.183   0.188   0.189   0.192   0.194   0.188   0.188   0.188   0.184   0.188
    80.05    0.210   0.201   0.198   0.210   0.205   0.195   0.190   0.193   0.199   0.204   0.199   0.199   0.192   0.192   0.196   0.190   0.195   0.187   0.188   0.188   0.185   0.183   0.192   0.200   0.195   0.194   0.193   0.188   0.190   0.187   0.194   0.189   0.184   0.184   0.182
    75.40    0.210   0.212   0.205   0.205   0.202   0.194   0.197   0.195   0.195   0.203   0.207   0.195   0.194   0.188   0.195   0.189   0.184   0.185   0.184   0.188   0.194   0.195   0.193   0.198   0.196   0.188   0.191   0.192   0.190   0.179   0.189   0.191   0.189   0.178   0.183
    70.75    0.202   0.210   0.204   0.210   0.212   0.208   0.196   0.199   0.193   0.196   0.198   0.196   0.190   0.193   0.193   0.190   0.185   0.185   0.183   0.187   0.189   0.191   0.198   0.198   0.195   0.187   0.188   0.192   0.195   0.189   0.183   0.187   0.191   0.188   0.190
    66.10    0.196   0.201   0.211   0.213   0.210   0.206   0.196   0.197   0.205   0.201   0.199   0.201   0.190   0.188   0.188   0.186   0.186   0.182   0.189   0.192   0.190   0.207   0.206   0.200   0.184   0.188   0.190   0.193   0.201   0.190   0.189   0.196   0.192   0.197   0.194
    61.45    0.200   0.197   0.202   0.211   0.208   0.212   0.194   0.203   0.208   0.200   0.201   0.191   0.190   0.186   0.181   0.189   0.193   0.191   0.195   0.193   0.204   0.201   0.204   0.202   0.193   0.197   0.201   0.190   0.206   0.201   0.192   0.197   0.190   0.188   0.188
    56.80    0.209   0.212   0.209   0.205   0.206   0.206   0.204   0.201   0.201   0.201   0.192   0.189   0.193   0.191   0.184   0.181   0.192   0.196   0.203   0.195   0.207   0.206   0.201   0.208   0.210   0.209   0.202   0.202   0.200   0.208   0.204   0.198   0.200   0.199   0.189
    52.15    0.208   0.206   0.212   0.206   0.210   0.208   0.211   0.207   0.198   0.201   0.187   0.197   0.198   0.192   0.187   0.188   0.191   0.196   0.206   0.201   0.204   0.203   0.201   0.199   0.206   0.221   0.211   0.214   0.210   0.209   0.210   0.204   0.197   0.201   0.191
    47.50    0.206   0.204   0.203   0.207   0.206   0.210   0.220   0.204   0.197   0.209   0.203   0.203   0.202   0.189   0.187   0.183   0.189   0.188   0.198   0.194   0.198   0.200   0.194   0.207   0.210   0.214   0.208   0.195   0.210   0.209   0.209   0.202   0.200   0.192   0.190
    42.85    0.201   0.208   0.202   0.204   0.202   0.209   0.214   0.213   0.205   0.203   0.203   0.202   0.205   0.197   0.189   0.185   0.179   0.176   0.184   0.190   0.203   0.204   0.208   0.211   0.205   0.209   0.203   0.205   0.206   0.206   0.206   0.200   0.200   0.196   0.185
    38.20    0.211   0.200   0.206   0.201   0.204   0.208   0.207   0.202   0.207   0.198   0.207   0.202   0.208   0.214   0.208   0.198   0.195   0.190   0.184   0.196   0.208   0.210   0.208   0.205   0.202   0.204   0.198   0.194   0.193   0.198   0.197   0.197   0.193   0.192   0.191
    33.55    0.211   0.210   0.208   0.201   0.201   0.199   0.196   0.201   0.209   0.208   0.206   0.199   0.205   0.209   0.206   0.214   0.203   0.205   0.193   0.206   0.205   0.211   0.199   0.202   0.203   0.206   0.192   0.198   0.202   0.194   0.190   0.197   0.184   0.185   0.184
    28.90    0.214   0.200   0.205   0.196   0.197   0.198   0.204   0.211   0.216   0.200   0.203   0.201   0.204   0.207   0.207   0.214   0.214   0.211   0.211   0.203   0.204   0.214   0.208   0.200   0.202   0.209   0.193   0.196   0.203   0.197   0.194   0.185   0.186   0.187   0.179
    24.25    0.210   0.199   0.197   0.195   0.199   0.205   0.212   0.213   0.206   0.201   0.202   0.200   0.204   0.213   0.220   0.214   0.222   0.211   0.211   0.208   0.201   0.209   0.204   0.201   0.194   0.196   0.206   0.198   0.208   0.199   0.198   0.195   0.192   0.189   0.183
    19.60    0.200   0.194   0.188   0.197   0.202   0.197   0.198   0.202   0.197   0.196   0.195   0.192   0.200   0.202   0.199   0.215   0.216   0.215   0.214   0.210   0.210   0.208   0.202   0.199   0.197   0.202   0.207   0.205   0.210   0.202   0.206   0.200   0.196   0.192   0.191
    14.95    0.196   0.189   0.191   0.196   0.205   0.196   0.194   0.186   0.187   0.186   0.190   0.191   0.205   0.208   0.215   0.212   0.202   0.209   0.212   0.209   0.202   0.196   0.193   0.201   0.199   0.195   0.202   0.213   0.211   0.217   0.207   0.209   0.207   0.198   0.200
    10.30    0.196   0.194   0.188   0.190   0.198   0.196   0.196   0.190   0.181   0.191   0.200   0.204   0.201   0.206   0.214   0.219   0.208   0.205   0.201   0.201   0.205   0.205   0.197   0.201   0.205   0.195   0.197   0.208   0.210   0.206   0.201   0.198   0.203   0.208   0.207
     5.65    0.200   0.194   0.192   0.187   0.190   0.193   0.192   0.187   0.188   0.188   0.199   0.207   0.206   0.201   0.207   0.208   0.211   0.210   0.198   0.198   0.199   0.203   0.209   0.203   0.208   0.205   0.204   0.201   0.201   0.207   0.199   0.200   0.205   0.202   0.204
     1.00    0.196   0.197   0.189   0.191   0.190   0.197   0.190   0.189   0.189   0.199   0.200   0.205   0.200   0.202   0.210   0.213   0.207   0.203   0.198   0.201   0.206   0.207   0.205   0.204   0.197   0.202   0.191   0.200   0.207   0.201   0.203   0.202   0.198   0.205   0.202

   Mean standard deviation across all grid points:
      u component:    0.330 m/s
      v component:    0.310 m/s
      w component:    0.196 m/s


U-component (X) statistics from the interpolated hub point:

   Mean =   9.9913 m/s
   TI   =   3.2777 %


Processing complete.  6319.9 CPU seconds used.
