
This summary file was generated by TurbSim (from OpenFAST-v3.5.3) on 20-Apr-2025 at 09:21:56.


Runtime Options:

 376932526  Random seed #1
    RANLUX  Type of random number generator
         F  Output binary HH turbulence parameters?
         F  Output formatted turbulence parameters?
         F  Output AeroDyn HH files?
         T  Output AeroDyn FF files?
         F  Output BLADED FF files?
         F  Output tower data?
         F  Output HAWC FF files?
         F  Output formatted FF files?
         T  Output coherent turbulence time step file?
 0 -  NONE  IEC turbulence models scaled to exact specified standard deviation


Turbine/Model Specifications:

        37  Vertical grid-point matrix dimension
        35  Horizontal grid-point matrix dimension
     0.250  Time step [seconds]
   900.000  Analysis time [seconds]
   900.000  Usable output time [seconds]
    89.350  Hub height [m]
   167.400  Grid height [m]
   158.100  Grid width [m]
     0.000  Vertical flow angle [degrees]
     0.000  Horizontal flow angle [degrees]


Meteorological Boundary Conditions:

    TIMESR  User-input time series spectral model
       N/A  IEC standard
       N/A  IEC turbulence characteristic
       N/A  IEC turbulence type
       N/A  IEC Extreme Turbulence Model (ETM) "c" parameter [m/s]
       PL   Wind profile type
    90.000  Reference height [m]
    10.000  Reference wind speed [m/s]
       N/A  Jet height [m]
     0.120  Power law exponent
     0.030  Surface roughness length [m]


Non-IEC Meteorological Boundary Conditions:

    45.000  Site latitude [degrees]
     0.050  Gradient Richardson number
     0.480  Friction or shear velocity [m/s]
       N/A  Mixing layer depth [m]
       N/A  Mean hub u'w' Reynolds stress
       N/A  Mean hub u'v' Reynolds stress
       N/A  Mean hub v'w' Reynolds stress


Spatial Coherence Models:

       IEC  u-component coherence model
       IEC  v-component coherence model
       IEC  w-component coherence model
(   12.000, 0.353E-03)  u-component coherence parameters
(   12.000, 0.353E-03)  v-component coherence parameters
(   12.000, 0.353E-03)  w-component coherence parameters
       N/A  Coherence exponent


Coherent Turbulence Scaling Parameters:

.\EventData
            Name of the path containing the coherent turbulence data files
       les  Type of coherent turbulence data files
     1.000  Disturbance scale (ratio of wave height to rotor diameter)
     0.500  Fractional location of tower centerline from right
     0.500  Fractional location of hub height from the bottom of the dataset
    30.000  Minimum start time for coherent structures [seconds]


Profiles from User-Defined Time-Series Input:

  Height   Wind Speed   Horizontal Angle   Vertical Angle
   (m)        (m/s)          (deg)              (deg)    
  ------   ----------   ----------------   --------------
   94.00      10.00          -0.63               -0.00


You have requested that the following file(s) be generated:

   /kfs3/scratch/agupta/Projects/RL_Incubator/FinalRuns_Veer/Seed4/./FFSim_Seed4/Cond00_v10.0_PL0.12_TI4.0/Case2_wdirp04/Seed_6/TurbSim/HighT11.bts (AeroDyn/TurbSim full-field wind file)


Turbulence Simulation Scaling Parameter Summary:

   Turbulence model used                            =  User-input time series
   Gradient Richardson number                       =    0.050
   Monin-Obukhov (M-O) z/L parameter                =    0.067
   Monin-Obukhov (M-O) length scale                 = 1340.250 m
   Mean wind speed at hub height                    =    9.991 m/s

   Wind profile type                                =  Power law
   Power law exponent                               =    0.120
   Mean shear across rotor disk                     =    0.019 (m/s)/m
   Assumed rotor diameter                           =  158.100 m
   Surface roughness length                         =    0.030 m

   Nyquist frequency of turbulent wind field        =    2.000 Hz

   Number of time steps in the FFT                  =     3600
   Number of time steps output                      =     3600
   Number of points simulated                       =     1296


Mean Flow Angles:

   Vertical   =   0.0 degrees
   Horizontal =   0.0 degrees

Mean Wind Speed Profile:

   Height    Wind Speed   Horizontal Angle  Vertical Angle  U-comp (X)   V-comp (Y)   W-comp (Z)
     (m)        (m/s)         (degrees)       (degrees)       (m/s)        (m/s)        (m/s)   
   ------    ----------   ----------------  --------------  ----------   ----------   ----------
    168.4       10.78            0.00            0.00         10.78         0.00         0.00
    163.7       10.74            0.00            0.00         10.74         0.00         0.00
    159.1       10.71            0.00            0.00         10.71         0.00         0.00
    154.4       10.67            0.00            0.00         10.67         0.00         0.00
    149.8       10.63            0.00            0.00         10.63         0.00         0.00
    145.1       10.59            0.00            0.00         10.59         0.00         0.00
    140.5       10.55            0.00            0.00         10.55         0.00         0.00
    135.8       10.51            0.00            0.00         10.51         0.00         0.00
    131.2       10.46            0.00            0.00         10.46         0.00         0.00
    126.5       10.42            0.00            0.00         10.42         0.00         0.00
    121.9       10.37            0.00            0.00         10.37         0.00         0.00
    117.2       10.32            0.00            0.00         10.32         0.00         0.00
    112.6       10.27            0.00            0.00         10.27         0.00         0.00
    107.9       10.22            0.00            0.00         10.22         0.00         0.00
    103.3       10.17            0.00            0.00         10.17         0.00         0.00
     98.6       10.11            0.00            0.00         10.11         0.00         0.00
     94.0       10.05            0.00            0.00         10.05         0.00         0.00
     89.3        9.99            0.00            0.00          9.99         0.00         0.00
     84.7        9.93            0.00            0.00          9.93         0.00         0.00
     80.0        9.86            0.00            0.00          9.86         0.00         0.00
     75.4        9.79            0.00            0.00          9.79         0.00         0.00
     70.7        9.72            0.00            0.00          9.72         0.00         0.00
     66.1        9.64            0.00            0.00          9.64         0.00         0.00
     61.4        9.55            0.00            0.00          9.55         0.00         0.00
     56.8        9.46            0.00            0.00          9.46         0.00         0.00
     52.1        9.37            0.00            0.00          9.37         0.00         0.00
     47.5        9.26            0.00            0.00          9.26         0.00         0.00
     42.8        9.15            0.00            0.00          9.15         0.00         0.00
     38.2        9.02            0.00            0.00          9.02         0.00         0.00
     33.5        8.88            0.00            0.00          8.88         0.00         0.00
     28.9        8.73            0.00            0.00          8.73         0.00         0.00
     24.2        8.54            0.00            0.00          8.54         0.00         0.00
     19.6        8.33            0.00            0.00          8.33         0.00         0.00
     14.9        8.06            0.00            0.00          8.06         0.00         0.00
     10.3        7.71            0.00            0.00          7.71         0.00         0.00
      5.6        7.17            0.00            0.00          7.17         0.00         0.00
      1.0        5.83            0.00            0.00          5.83         0.00         0.00


Harvested Random Seeds after Generation of the Random Numbers:

     65026800 K 1
            0 K 2


Hub-Height Simulated Turbulence Statistical Summary:

   Type of Wind        Min (m/s)   Mean (m/s)    Max (m/s)  Sigma (m/s)       TI (%)
   ----------------    ---------   ----------    ---------  -----------       ------
   Longitudinal (u)         8.94         9.99        11.13        0.385        3.852
   Lateral (v)             -1.14        -0.00         1.07        0.335        3.352
   Vertical (w)            -0.68        -0.00         0.58        0.190        1.899
   U component              8.94         9.99        11.13        0.385        3.852
   V component             -1.14        -0.00         1.07        0.335        3.352
   W component             -0.68        -0.00         0.58        0.190        1.899
   Horizontal (U&V)         8.94        10.00        11.13        0.385        3.851
   Total                    8.94        10.00        11.13        0.385        3.850

                       Min Reynolds     Mean Reynolds    Max Reynolds    Correlation
   Product             Stress (m/s)^2   Stress (m/s)^2   Stress (m/s)^2  Coefficient
   ----------------    --------------   --------------   --------------  -----------
   u'w'                     -0.307            -0.005             0.345        -0.062
   u'v'                     -0.726             0.017             0.816         0.133
   v'w'                     -0.289             0.006             0.539         0.092


   Friction Velocity (Ustar)  =      0.067 m/s
   Maximum Instantaneous TKE  =      0.828 (m/s)^2
   Maximum Instantaneous CTKE =      0.435 (m/s)^2


Grid Point Variance Summary:

   Y-coord  -79.05  -74.40  -69.75  -65.10  -60.45  -55.80  -51.15  -46.50  -41.85  -37.20  -32.55  -27.90  -23.25  -18.60  -13.95   -9.30   -4.65    0.00    4.65    9.30   13.95   18.60   23.25   27.90   32.55   37.20   41.85   46.50   51.15   55.80   60.45   65.10   69.75   74.40   79.05

   Height   Standard deviation at grid points for the u component:
   168.40    0.347   0.322   0.323   0.319   0.305   0.313   0.345   0.358   0.352   0.385   0.349   0.330   0.334   0.341   0.340   0.308   0.332   0.329   0.335   0.341   0.352   0.364   0.358   0.379   0.356   0.361   0.384   0.386   0.388   0.375   0.339   0.346   0.334   0.331   0.342
   163.75    0.332   0.314   0.333   0.333   0.308   0.306   0.331   0.322   0.346   0.347   0.343   0.329   0.343   0.352   0.321   0.326   0.309   0.326   0.340   0.334   0.329   0.365   0.375   0.394   0.382   0.377   0.401   0.396   0.387   0.356   0.345   0.344   0.332   0.337   0.339
   159.10    0.329   0.327   0.328   0.329   0.332   0.308   0.318   0.341   0.344   0.326   0.325   0.333   0.342   0.357   0.346   0.347   0.331   0.333   0.349   0.336   0.362   0.361   0.376   0.394   0.417   0.405   0.409   0.408   0.382   0.369   0.346   0.337   0.353   0.365   0.369
   154.45    0.333   0.329   0.312   0.313   0.320   0.316   0.302   0.325   0.361   0.316   0.304   0.333   0.333   0.350   0.339   0.351   0.348   0.371   0.345   0.353   0.361   0.381   0.384   0.373   0.403   0.417   0.401   0.408   0.398   0.390   0.371   0.349   0.367   0.386   0.379
   149.80    0.330   0.339   0.310   0.318   0.329   0.336   0.317   0.310   0.333   0.333   0.339   0.341   0.369   0.357   0.340   0.344   0.344   0.367   0.353   0.341   0.355   0.371   0.393   0.404   0.444   0.425   0.403   0.395   0.411   0.396   0.379   0.392   0.417   0.379   0.362
   145.15    0.330   0.341   0.326   0.333   0.342   0.343   0.337   0.320   0.326   0.321   0.335   0.337   0.340   0.358   0.351   0.351   0.365   0.350   0.369   0.365   0.370   0.374   0.401   0.413   0.431   0.424   0.393   0.418   0.406   0.404   0.399   0.383   0.399   0.381   0.380
   140.50    0.317   0.319   0.302   0.318   0.316   0.319   0.327   0.307   0.327   0.322   0.339   0.357   0.336   0.346   0.356   0.367   0.371   0.373   0.405   0.397   0.387   0.380   0.386   0.408   0.416   0.429   0.399   0.412   0.406   0.410   0.406   0.406   0.393   0.376   0.385
   135.85    0.312   0.314   0.297   0.297   0.314   0.341   0.344   0.320   0.331   0.323   0.329   0.334   0.337   0.351   0.340   0.358   0.359   0.366   0.386   0.416   0.388   0.385   0.379   0.387   0.399   0.396   0.412   0.404   0.402   0.410   0.412   0.395   0.401   0.371   0.355
   131.20    0.325   0.325   0.290   0.291   0.307   0.313   0.333   0.339   0.330   0.315   0.328   0.326   0.324   0.319   0.342   0.351   0.327   0.335   0.356   0.374   0.366   0.389   0.401   0.391   0.410   0.414   0.402   0.395   0.372   0.386   0.387   0.388   0.383   0.400   0.355
   126.55    0.328   0.320   0.283   0.297   0.304   0.302   0.314   0.349   0.339   0.312   0.325   0.322   0.323   0.318   0.351   0.370   0.334   0.330   0.334   0.350   0.358   0.386   0.398   0.423   0.429   0.410   0.405   0.379   0.372   0.378   0.383   0.375   0.378   0.389   0.350
   121.90    0.359   0.347   0.322   0.330   0.324   0.326   0.321   0.350   0.371   0.331   0.330   0.339   0.318   0.347   0.349   0.375   0.357   0.334   0.334   0.359   0.370   0.378   0.404   0.398   0.420   0.420   0.409   0.394   0.391   0.381   0.390   0.383   0.366   0.368   0.357
   117.25    0.328   0.327   0.330   0.339   0.337   0.333   0.332   0.349   0.357   0.352   0.366   0.365   0.355   0.375   0.359   0.370   0.386   0.380   0.372   0.362   0.368   0.378   0.398   0.404   0.422   0.427   0.413   0.412   0.415   0.421   0.405   0.402   0.410   0.420   0.376
   112.60    0.307   0.299   0.315   0.327   0.341   0.347   0.365   0.371   0.351   0.338   0.351   0.368   0.352   0.374   0.389   0.398   0.407   0.400   0.396   0.370   0.381   0.371   0.383   0.396   0.408   0.422   0.384   0.410   0.405   0.432   0.418   0.398   0.383   0.388   0.382
   107.95    0.292   0.285   0.318   0.338   0.334   0.352   0.371   0.381   0.353   0.331   0.339   0.367   0.359   0.372   0.376   0.396   0.406   0.392   0.377   0.369   0.391   0.366   0.362   0.391   0.378   0.395   0.415   0.414   0.428   0.412   0.380   0.373   0.368   0.408   0.365
   103.30    0.283   0.301   0.308   0.323   0.337   0.373   0.376   0.381   0.337   0.330   0.342   0.341   0.374   0.385   0.371   0.392   0.387   0.378   0.401   0.395   0.371   0.380   0.357   0.378   0.391   0.416   0.409   0.408   0.433   0.409   0.390   0.381   0.389   0.395   0.395
    98.65    0.310   0.301   0.304   0.320   0.354   0.357   0.351   0.364   0.351   0.337   0.327   0.348   0.390   0.399   0.393   0.409   0.403   0.391   0.402   0.414   0.388   0.395   0.388   0.362   0.376   0.428   0.421   0.441   0.414   0.424   0.403   0.394   0.374   0.362   0.373
    94.00    0.308   0.290   0.297   0.316   0.352   0.350   0.355   0.340   0.342   0.306   0.308   0.347   0.344   0.383   0.377   0.380   0.392   0.414   0.414   0.399   0.385   0.409   0.414   0.372   0.407   0.428   0.457   0.445   0.393   0.416   0.382   0.387   0.348   0.359   0.369
    89.35    0.277   0.284   0.295   0.306   0.325   0.335   0.345   0.346   0.333   0.288   0.313   0.341   0.348   0.344   0.386   0.387   0.389   0.385   0.426   0.412   0.424   0.437   0.418   0.390   0.410   0.444   0.442   0.436   0.410   0.424   0.417   0.411   0.375   0.390   0.363
    84.70    0.305   0.298   0.303   0.304   0.304   0.326   0.341   0.347   0.345   0.306   0.306   0.344   0.352   0.339   0.390   0.403   0.404   0.388   0.419   0.444   0.429   0.427   0.387   0.396   0.426   0.430   0.452   0.458   0.428   0.414   0.399   0.389   0.383   0.375   0.350
    80.05    0.301   0.306   0.304   0.325   0.322   0.346   0.339   0.325   0.324   0.338   0.335   0.355   0.352   0.355   0.392   0.402   0.401   0.404   0.416   0.427   0.445   0.424   0.392   0.402   0.413   0.431   0.426   0.440   0.442   0.406   0.404   0.394   0.368   0.359   0.329
    75.40    0.317   0.310   0.330   0.328   0.316   0.332   0.340   0.341   0.319   0.330   0.334   0.338   0.334   0.366   0.386   0.410   0.387   0.393   0.418   0.427   0.407   0.422   0.405   0.384   0.393   0.431   0.437   0.438   0.452   0.421   0.447   0.394   0.353   0.375   0.358
    70.75    0.356   0.322   0.321   0.309   0.302   0.315   0.341   0.327   0.336   0.334   0.328   0.344   0.372   0.377   0.380   0.405   0.408   0.401   0.407   0.420   0.404   0.418   0.399   0.361   0.378   0.423   0.456   0.440   0.423   0.435   0.443   0.397   0.388   0.379   0.363
    66.10    0.345   0.321   0.332   0.310   0.300   0.307   0.335   0.341   0.321   0.340   0.346   0.340   0.365   0.397   0.398   0.407   0.443   0.446   0.461   0.434   0.429   0.420   0.404   0.389   0.370   0.403   0.445   0.451   0.406   0.450   0.437   0.402   0.384   0.395   0.402
    61.45    0.345   0.343   0.352   0.348   0.324   0.318   0.336   0.316   0.331   0.351   0.368   0.385   0.406   0.392   0.420   0.412   0.441   0.464   0.462   0.476   0.433   0.439   0.433   0.426   0.400   0.402   0.425   0.441   0.429   0.399   0.436   0.415   0.412   0.418   0.401
    56.80    0.333   0.338   0.345   0.342   0.331   0.317   0.328   0.341   0.335   0.363   0.374   0.382   0.396   0.372   0.396   0.426   0.414   0.434   0.447   0.436   0.407   0.443   0.466   0.485   0.439   0.432   0.421   0.435   0.451   0.418   0.424   0.425   0.389   0.382   0.400
    52.15    0.330   0.332   0.346   0.333   0.349   0.342   0.329   0.340   0.354   0.386   0.403   0.375   0.364   0.371   0.398   0.399   0.413   0.414   0.422   0.414   0.406   0.439   0.457   0.474   0.428   0.430   0.429   0.416   0.398   0.380   0.410   0.422   0.383   0.378   0.377
    47.50    0.324   0.329   0.335   0.338   0.344   0.349   0.340   0.335   0.357   0.382   0.379   0.365   0.349   0.374   0.399   0.409   0.416   0.432   0.432   0.415   0.414   0.455   0.453   0.431   0.438   0.418   0.425   0.398   0.373   0.355   0.387   0.411   0.390   0.390   0.371
    42.85    0.333   0.351   0.364   0.347   0.350   0.329   0.318   0.353   0.362   0.342   0.356   0.368   0.366   0.375   0.364   0.381   0.404   0.456   0.479   0.446   0.439   0.430   0.431   0.443   0.451   0.439   0.427   0.423   0.385   0.362   0.399   0.412   0.406   0.388   0.388
    38.20    0.345   0.351   0.375   0.342   0.320   0.317   0.339   0.348   0.336   0.323   0.337   0.358   0.382   0.383   0.376   0.355   0.409   0.458   0.472   0.440   0.455   0.465   0.465   0.450   0.442   0.449   0.450   0.432   0.430   0.415   0.426   0.409   0.399   0.409   0.401
    33.55    0.336   0.364   0.358   0.353   0.328   0.344   0.339   0.304   0.302   0.333   0.329   0.354   0.365   0.377   0.362   0.352   0.392   0.442   0.418   0.436   0.421   0.438   0.433   0.412   0.432   0.441   0.420   0.412   0.440   0.436   0.426   0.413   0.376   0.389   0.376
    28.90    0.311   0.342   0.325   0.346   0.342   0.344   0.335   0.319   0.306   0.338   0.337   0.365   0.372   0.370   0.406   0.383   0.368   0.394   0.401   0.407   0.407   0.442   0.426   0.405   0.382   0.436   0.413   0.417   0.440   0.442   0.430   0.402   0.383   0.381   0.364
    24.25    0.338   0.351   0.317   0.356   0.349   0.353   0.351   0.347   0.331   0.338   0.322   0.336   0.365   0.387   0.393   0.373   0.388   0.399   0.377   0.408   0.389   0.457   0.425   0.419   0.415   0.434   0.418   0.417   0.421   0.448   0.420   0.401   0.381   0.384   0.363
    19.60    0.334   0.349   0.323   0.319   0.330   0.328   0.344   0.347   0.330   0.361   0.350   0.366   0.368   0.426   0.399   0.359   0.391   0.404   0.376   0.403   0.419   0.428   0.425   0.413   0.412   0.434   0.427   0.444   0.457   0.449   0.434   0.376   0.396   0.382   0.383
    14.95    0.350   0.327   0.309   0.298   0.339   0.342   0.349   0.357   0.357   0.358   0.353   0.363   0.398   0.394   0.403   0.389   0.415   0.394   0.382   0.416   0.430   0.422   0.400   0.400   0.401   0.446   0.457   0.423   0.419   0.441   0.410   0.363   0.370   0.357   0.357
    10.30    0.353   0.328   0.324   0.326   0.321   0.318   0.344   0.357   0.346   0.340   0.344   0.370   0.393   0.409   0.431   0.422   0.414   0.395   0.416   0.422   0.405   0.399   0.386   0.397   0.412   0.442   0.414   0.406   0.420   0.433   0.379   0.373   0.365   0.374   0.366
     5.65    0.371   0.337   0.317   0.299   0.311   0.316   0.348   0.373   0.356   0.347   0.343   0.363   0.385   0.412   0.390   0.393   0.394   0.382   0.389   0.383   0.407   0.397   0.390   0.385   0.414   0.438   0.423   0.428   0.413   0.423   0.406   0.395   0.392   0.395   0.380
     1.00    0.372   0.363   0.340   0.330   0.324   0.349   0.362   0.377   0.375   0.349   0.337   0.356   0.373   0.360   0.356   0.370   0.370   0.371   0.388   0.394   0.412   0.420   0.405   0.376   0.381   0.403   0.402   0.398   0.407   0.414   0.423   0.398   0.396   0.394   0.363

   Height   Standard deviation at grid points for the v component:
   168.40    0.288   0.290   0.305   0.300   0.313   0.324   0.329   0.332   0.306   0.289   0.293   0.281   0.288   0.265   0.261   0.288   0.286   0.287   0.294   0.285   0.269   0.285   0.292   0.288   0.293   0.288   0.282   0.296   0.316   0.315   0.308   0.316   0.312   0.320   0.296
   163.75    0.291   0.300   0.296   0.305   0.304   0.299   0.318   0.326   0.312   0.294   0.289   0.287   0.290   0.278   0.285   0.279   0.284   0.282   0.285   0.291   0.281   0.276   0.281   0.284   0.268   0.268   0.274   0.287   0.287   0.293   0.307   0.319   0.334   0.323   0.306
   159.10    0.291   0.308   0.294   0.276   0.287   0.292   0.302   0.309   0.313   0.301   0.277   0.285   0.295   0.279   0.285   0.287   0.277   0.273   0.290   0.289   0.271   0.273   0.277   0.290   0.279   0.264   0.270   0.286   0.283   0.297   0.304   0.303   0.335   0.320   0.314
   154.45    0.293   0.297   0.284   0.288   0.284   0.287   0.289   0.312   0.313   0.298   0.284   0.258   0.280   0.297   0.284   0.297   0.289   0.284   0.278   0.279   0.268   0.264   0.281   0.288   0.279   0.289   0.279   0.301   0.299   0.308   0.317   0.318   0.331   0.312   0.321
   149.80    0.291   0.283   0.284   0.294   0.267   0.294   0.284   0.297   0.287   0.287   0.279   0.275   0.288   0.291   0.284   0.309   0.296   0.281   0.270   0.276   0.277   0.269   0.273   0.288   0.294   0.298   0.305   0.294   0.306   0.311   0.321   0.316   0.311   0.315   0.316
   145.15    0.305   0.301   0.280   0.278   0.267   0.287   0.295   0.291   0.294   0.288   0.303   0.304   0.291   0.278   0.288   0.298   0.291   0.299   0.285   0.276   0.281   0.294   0.303   0.289   0.288   0.293   0.310   0.291   0.318   0.325   0.335   0.322   0.322   0.318   0.329
   140.50    0.308   0.281   0.300   0.279   0.258   0.283   0.283   0.296   0.325   0.310   0.306   0.294   0.287   0.293   0.297   0.307   0.299   0.296   0.280   0.276   0.306   0.323   0.306   0.319   0.321   0.316   0.310   0.322   0.323   0.331   0.343   0.309   0.330   0.334   0.306
   135.85    0.300   0.312   0.297   0.295   0.286   0.296   0.275   0.309   0.321   0.317   0.314   0.282   0.281   0.294   0.314   0.308   0.315   0.299   0.293   0.306   0.306   0.317   0.336   0.334   0.329   0.328   0.312   0.314   0.322   0.334   0.345   0.332   0.328   0.332   0.329
   131.20    0.280   0.287   0.313   0.301   0.296   0.304   0.301   0.318   0.327   0.321   0.299   0.294   0.291   0.301   0.309   0.322   0.317   0.304   0.291   0.317   0.315   0.331   0.337   0.338   0.349   0.327   0.327   0.314   0.329   0.338   0.338   0.325   0.310   0.315   0.299
   126.55    0.292   0.307   0.305   0.304   0.312   0.303   0.302   0.298   0.299   0.327   0.320   0.284   0.284   0.314   0.316   0.323   0.323   0.295   0.290   0.300   0.312   0.336   0.322   0.343   0.338   0.332   0.343   0.347   0.346   0.327   0.326   0.310   0.308   0.303   0.285
   121.90    0.309   0.317   0.320   0.319   0.328   0.316   0.306   0.282   0.295   0.304   0.316   0.300   0.313   0.317   0.318   0.311   0.310   0.304   0.306   0.294   0.293   0.317   0.329   0.340   0.338   0.338   0.345   0.351   0.319   0.320   0.320   0.303   0.319   0.299   0.299
   117.25    0.333   0.320   0.304   0.299   0.317   0.314   0.302   0.295   0.280   0.295   0.293   0.317   0.325   0.328   0.333   0.326   0.333   0.312   0.304   0.311   0.301   0.316   0.321   0.338   0.355   0.350   0.365   0.343   0.328   0.315   0.310   0.321   0.315   0.293   0.297
   112.60    0.313   0.324   0.317   0.325   0.310   0.305   0.305   0.307   0.300   0.294   0.318   0.312   0.338   0.350   0.335   0.329   0.330   0.305   0.317   0.323   0.310   0.311   0.321   0.328   0.339   0.342   0.350   0.338   0.337   0.329   0.311   0.309   0.305   0.302   0.300
   107.95    0.338   0.325   0.326   0.344   0.330   0.326   0.334   0.302   0.308   0.311   0.311   0.357   0.352   0.346   0.353   0.327   0.314   0.306   0.306   0.298   0.307   0.293   0.310   0.324   0.341   0.325   0.340   0.328   0.331   0.315   0.316   0.298   0.293   0.310   0.299
   103.30    0.322   0.342   0.329   0.347   0.345   0.332   0.310   0.308   0.297   0.319   0.329   0.356   0.369   0.363   0.337   0.308   0.320   0.324   0.316   0.320   0.327   0.303   0.332   0.349   0.333   0.332   0.347   0.342   0.342   0.311   0.310   0.334   0.319   0.307   0.319
    98.65    0.320   0.336   0.341   0.357   0.329   0.317   0.310   0.308   0.295   0.308   0.310   0.353   0.350   0.367   0.347   0.326   0.321   0.331   0.328   0.342   0.330   0.324   0.327   0.330   0.333   0.332   0.342   0.336   0.335   0.327   0.327   0.335   0.330   0.320   0.321
    94.00    0.326   0.323   0.320   0.328   0.330   0.330   0.310   0.306   0.319   0.309   0.302   0.331   0.349   0.358   0.365   0.350   0.332   0.319   0.323   0.334   0.345   0.348   0.343   0.336   0.308   0.319   0.320   0.328   0.341   0.339   0.327   0.322   0.322   0.329   0.334
    89.35    0.334   0.325   0.319   0.335   0.317   0.341   0.320   0.339   0.334   0.326   0.312   0.324   0.353   0.355   0.361   0.340   0.341   0.335   0.334   0.343   0.346   0.339   0.360   0.368   0.331   0.294   0.300   0.321   0.313   0.344   0.349   0.324   0.319   0.333   0.339
    84.70    0.346   0.344   0.343   0.327   0.315   0.350   0.381   0.360   0.354   0.347   0.337   0.355   0.368   0.367   0.367   0.368   0.363   0.370   0.347   0.358   0.341   0.339   0.346   0.368   0.342   0.325   0.309   0.314   0.323   0.326   0.327   0.340   0.339   0.350   0.350
    80.05    0.363   0.366   0.360   0.345   0.334   0.366   0.368   0.380   0.382   0.398   0.361   0.357   0.360   0.355   0.364   0.360   0.368   0.363   0.343   0.371   0.353   0.356   0.367   0.379   0.367   0.343   0.319   0.307   0.313   0.328   0.325   0.336   0.320   0.351   0.355
    75.40    0.338   0.353   0.354   0.343   0.367   0.374   0.382   0.403   0.413   0.400   0.362   0.379   0.390   0.384   0.374   0.372   0.367   0.363   0.350   0.365   0.373   0.377   0.354   0.359   0.354   0.335   0.331   0.315   0.321   0.340   0.321   0.313   0.323   0.337   0.324
    70.75    0.363   0.347   0.348   0.345   0.380   0.379   0.380   0.376   0.396   0.380   0.375   0.376   0.392   0.396   0.379   0.367   0.333   0.353   0.372   0.368   0.361   0.359   0.360   0.345   0.343   0.323   0.326   0.322   0.326   0.350   0.340   0.325   0.310   0.312   0.308
    66.10    0.360   0.347   0.341   0.357   0.367   0.363   0.351   0.374   0.396   0.374   0.385   0.407   0.393   0.403   0.375   0.366   0.324   0.329   0.339   0.374   0.359   0.362   0.353   0.333   0.337   0.336   0.336   0.304   0.316   0.333   0.335   0.326   0.311   0.313   0.307
    61.45    0.367   0.352   0.341   0.337   0.351   0.357   0.355   0.353   0.383   0.382   0.384   0.398   0.399   0.364   0.380   0.383   0.351   0.344   0.346   0.374   0.367   0.366   0.357   0.329   0.346   0.345   0.328   0.308   0.309   0.330   0.322   0.304   0.295   0.295   0.291
    56.80    0.334   0.329   0.333   0.321   0.320   0.343   0.351   0.369   0.346   0.356   0.374   0.378   0.370   0.375   0.379   0.382   0.342   0.354   0.347   0.356   0.363   0.352   0.328   0.339   0.337   0.333   0.313   0.309   0.310   0.328   0.314   0.303   0.283   0.279   0.273
    52.15    0.313   0.314   0.301   0.301   0.320   0.326   0.340   0.338   0.346   0.353   0.371   0.390   0.379   0.382   0.400   0.378   0.362   0.370   0.377   0.379   0.375   0.344   0.330   0.307   0.330   0.328   0.321   0.332   0.317   0.329   0.318   0.305   0.286   0.285   0.260
    47.50    0.299   0.313   0.306   0.293   0.300   0.327   0.335   0.336   0.341   0.354   0.357   0.365   0.366   0.349   0.364   0.401   0.374   0.371   0.383   0.372   0.376   0.380   0.345   0.333   0.331   0.317   0.308   0.328   0.308   0.326   0.316   0.301   0.278   0.267   0.254
    42.85    0.294   0.300   0.295   0.298   0.303   0.304   0.297   0.311   0.331   0.333   0.355   0.364   0.366   0.355   0.349   0.361   0.382   0.395   0.382   0.380   0.364   0.365   0.351   0.327   0.323   0.307   0.319   0.318   0.310   0.315   0.303   0.277   0.273   0.264   0.255
    38.20    0.293   0.288   0.279   0.297   0.294   0.279   0.294   0.296   0.310   0.334   0.351   0.337   0.357   0.353   0.347   0.345   0.351   0.380   0.370   0.370   0.370   0.367   0.356   0.341   0.322   0.322   0.314   0.302   0.305   0.302   0.284   0.284   0.279   0.258   0.246
    33.55    0.283   0.290   0.291   0.307   0.300   0.294   0.293   0.306   0.306   0.310   0.315   0.327   0.329   0.336   0.331   0.336   0.351   0.363   0.365   0.378   0.353   0.348   0.341   0.335   0.338   0.306   0.312   0.330   0.304   0.324   0.290   0.283   0.276   0.271   0.260
    28.90    0.291   0.292   0.309   0.293   0.302   0.299   0.301   0.311   0.310   0.302   0.316   0.305   0.327   0.318   0.318   0.325   0.317   0.338   0.335   0.349   0.346   0.338   0.329   0.316   0.327   0.327   0.317   0.311   0.309   0.318   0.310   0.279   0.271   0.296   0.290
    24.25    0.332   0.309   0.307   0.296   0.286   0.291   0.296   0.308   0.326   0.335   0.314   0.329   0.339   0.327   0.327   0.324   0.316   0.325   0.321   0.323   0.328   0.347   0.318   0.309   0.312   0.318   0.308   0.311   0.319   0.323   0.317   0.299   0.290   0.294   0.315
    19.60    0.332   0.324   0.327   0.311   0.304   0.312   0.307   0.318   0.326   0.316   0.327   0.330   0.340   0.332   0.320   0.311   0.304   0.324   0.319   0.315   0.330   0.334   0.336   0.304   0.300   0.294   0.293   0.300   0.301   0.315   0.292   0.303   0.295   0.303   0.315
    14.95    0.325   0.322   0.307   0.316   0.306   0.317   0.312   0.305   0.328   0.323   0.340   0.332   0.305   0.324   0.324   0.308   0.307   0.304   0.325   0.340   0.320   0.328   0.306   0.294   0.300   0.302   0.306   0.310   0.314   0.312   0.303   0.318   0.302   0.313   0.315
    10.30    0.313   0.324   0.330   0.318   0.293   0.309   0.305   0.319   0.326   0.330   0.340   0.324   0.302   0.303   0.318   0.324   0.324   0.334   0.308   0.330   0.324   0.321   0.302   0.290   0.293   0.297   0.294   0.296   0.286   0.318   0.322   0.331   0.327   0.333   0.324
     5.65    0.320   0.345   0.338   0.323   0.320   0.335   0.328   0.331   0.325   0.304   0.303   0.310   0.304   0.303   0.298   0.310   0.332   0.339   0.332   0.319   0.334   0.342   0.343   0.305   0.301   0.293   0.299   0.290   0.289   0.309   0.325   0.304   0.336   0.320   0.340
     1.00    0.339   0.346   0.334   0.320   0.341   0.353   0.360   0.334   0.320   0.331   0.292   0.285   0.308   0.309   0.292   0.314   0.318   0.347   0.341   0.324   0.342   0.330   0.320   0.321   0.298   0.282   0.287   0.287   0.274   0.288   0.303   0.300   0.309   0.330   0.333

   Height   Standard deviation at grid points for the w component:
   168.40    0.192   0.196   0.194   0.200   0.199   0.199   0.200   0.200   0.205   0.190   0.196   0.189   0.190   0.192   0.190   0.191   0.191   0.189   0.181   0.186   0.187   0.194   0.186   0.186   0.185   0.188   0.187   0.185   0.192   0.188   0.182   0.180   0.187   0.185   0.182
   163.75    0.194   0.194   0.191   0.190   0.195   0.191   0.192   0.201   0.201   0.197   0.194   0.188   0.191   0.184   0.180   0.185   0.191   0.186   0.192   0.195   0.188   0.193   0.195   0.186   0.186   0.183   0.185   0.178   0.182   0.188   0.190   0.183   0.181   0.190   0.191
   159.10    0.194   0.195   0.192   0.192   0.194   0.192   0.197   0.195   0.197   0.201   0.200   0.195   0.186   0.187   0.186   0.186   0.186   0.193   0.192   0.192   0.194   0.195   0.196   0.185   0.186   0.188   0.185   0.186   0.185   0.190   0.193   0.185   0.178   0.179   0.181
   154.45    0.187   0.185   0.188   0.186   0.195   0.192   0.195   0.194   0.193   0.194   0.200   0.198   0.192   0.186   0.181   0.185   0.187   0.196   0.190   0.192   0.196   0.200   0.191   0.185   0.187   0.179   0.178   0.179   0.184   0.183   0.188   0.184   0.183   0.175   0.184
   149.80    0.189   0.184   0.189   0.190   0.189   0.198   0.197   0.195   0.195   0.194   0.190   0.182   0.188   0.190   0.187   0.187   0.184   0.183   0.186   0.176   0.189   0.193   0.189   0.189   0.180   0.176   0.175   0.174   0.175   0.184   0.184   0.181   0.173   0.179   0.184
   145.15    0.189   0.184   0.187   0.190   0.190   0.204   0.202   0.196   0.196   0.192   0.192   0.195   0.196   0.194   0.199   0.188   0.180   0.184   0.179   0.182   0.187   0.196   0.189   0.188   0.182   0.182   0.185   0.185   0.183   0.186   0.188   0.178   0.175   0.177   0.178
   140.50    0.184   0.191   0.185   0.189   0.195   0.197   0.203   0.199   0.197   0.193   0.195   0.199   0.199   0.202   0.199   0.191   0.183   0.187   0.183   0.185   0.187   0.188   0.182   0.184   0.187   0.192   0.188   0.182   0.187   0.182   0.187   0.180   0.172   0.174   0.174
   135.85    0.180   0.181   0.192   0.193   0.193   0.191   0.199   0.200   0.198   0.191   0.197   0.201   0.202   0.199   0.194   0.186   0.179   0.184   0.188   0.194   0.184   0.192   0.181   0.182   0.192   0.193   0.190   0.192   0.190   0.186   0.183   0.179   0.181   0.176   0.174
   131.20    0.182   0.193   0.195   0.189   0.195   0.202   0.200   0.199   0.196   0.197   0.199   0.199   0.197   0.198   0.193   0.188   0.187   0.184   0.189   0.190   0.194   0.192   0.194   0.190   0.193   0.186   0.194   0.192   0.188   0.182   0.186   0.181   0.185   0.184   0.179
   126.55    0.195   0.196   0.197   0.195   0.199   0.208   0.209   0.204   0.197   0.200   0.198   0.198   0.200   0.197   0.196   0.189   0.188   0.190   0.194   0.190   0.187   0.195   0.198   0.196   0.187   0.193   0.198   0.193   0.192   0.183   0.186   0.188   0.182   0.181   0.183
   121.90    0.191   0.190   0.191   0.196   0.206   0.200   0.203   0.203   0.202   0.204   0.197   0.193   0.201   0.196   0.205   0.200   0.200   0.197   0.198   0.188   0.192   0.191   0.195   0.196   0.186   0.187   0.198   0.199   0.186   0.185   0.186   0.182   0.188   0.186   0.188
   117.25    0.192   0.187   0.190   0.199   0.194   0.191   0.197   0.200   0.194   0.199   0.200   0.192   0.198   0.199   0.195   0.197   0.204   0.203   0.202   0.200   0.192   0.189   0.190   0.194   0.188   0.193   0.197   0.195   0.196   0.192   0.183   0.184   0.192   0.191   0.189
   112.60    0.194   0.192   0.199   0.199   0.195   0.197   0.193   0.192   0.189   0.185   0.196   0.202   0.198   0.192   0.201   0.200   0.201   0.193   0.202   0.192   0.190   0.186   0.191   0.194   0.191   0.196   0.195   0.189   0.187   0.189   0.187   0.194   0.190   0.192   0.186
   107.95    0.193   0.189   0.196   0.200   0.198   0.201   0.193   0.191   0.187   0.185   0.196   0.203   0.206   0.198   0.202   0.200   0.198   0.206   0.200   0.193   0.191   0.192   0.189   0.193   0.184   0.186   0.183   0.187   0.190   0.192   0.188   0.199   0.191   0.190   0.184
   103.30    0.192   0.196   0.194   0.188   0.191   0.199   0.190   0.195   0.194   0.193   0.197   0.202   0.202   0.199   0.198   0.204   0.200   0.200   0.195   0.192   0.194   0.193   0.195   0.188   0.181   0.177   0.186   0.191   0.193   0.195   0.195   0.197   0.195   0.186   0.183
    98.65    0.192   0.196   0.192   0.191   0.193   0.195   0.195   0.195   0.198   0.196   0.202   0.196   0.198   0.196   0.197   0.202   0.203   0.203   0.201   0.194   0.194   0.194   0.200   0.193   0.183   0.180   0.191   0.192   0.193   0.194   0.189   0.192   0.194   0.186   0.185
    94.00    0.198   0.200   0.187   0.191   0.197   0.191   0.196   0.199   0.196   0.205   0.200   0.196   0.198   0.197   0.201   0.201   0.198   0.188   0.192   0.194   0.194   0.193   0.199   0.200   0.188   0.186   0.192   0.192   0.189   0.199   0.194   0.191   0.187   0.187   0.185
    89.35    0.199   0.206   0.193   0.188   0.190   0.193   0.196   0.195   0.193   0.201   0.202   0.206   0.196   0.206   0.204   0.192   0.201   0.190   0.201   0.200   0.200   0.196   0.198   0.198   0.195   0.195   0.191   0.188   0.195   0.199   0.196   0.187   0.184   0.181   0.192
    84.70    0.204   0.204   0.197   0.199   0.202   0.198   0.192   0.201   0.198   0.199   0.207   0.195   0.189   0.197   0.202   0.198   0.199   0.193   0.193   0.199   0.195   0.194   0.200   0.194   0.191   0.191   0.195   0.189   0.192   0.200   0.191   0.192   0.192   0.184   0.181
    80.05    0.207   0.204   0.200   0.207   0.202   0.199   0.190   0.198   0.196   0.198   0.202   0.195   0.195   0.195   0.202   0.198   0.200   0.187   0.189   0.197   0.202   0.200   0.208   0.216   0.201   0.205   0.195   0.191   0.188   0.199   0.199   0.191   0.185   0.185   0.179
    75.40    0.209   0.215   0.209   0.203   0.201   0.196   0.204   0.198   0.192   0.196   0.196   0.191   0.194   0.192   0.200   0.196   0.190   0.187   0.189   0.195   0.205   0.202   0.204   0.205   0.208   0.194   0.188   0.192   0.198   0.197   0.200   0.194   0.182   0.175   0.183
    70.75    0.205   0.213   0.202   0.204   0.209   0.207   0.202   0.199   0.192   0.197   0.197   0.192   0.195   0.198   0.193   0.196   0.191   0.192   0.203   0.204   0.206   0.203   0.204   0.208   0.199   0.189   0.192   0.195   0.198   0.199   0.185   0.185   0.188   0.182   0.182
    66.10    0.199   0.209   0.213   0.205   0.207   0.208   0.199   0.197   0.206   0.203   0.198   0.200   0.187   0.196   0.199   0.197   0.197   0.194   0.208   0.205   0.211   0.223   0.221   0.210   0.196   0.195   0.195   0.198   0.201   0.194   0.191   0.194   0.188   0.188   0.185
    61.45    0.206   0.203   0.203   0.209   0.214   0.218   0.197   0.206   0.210   0.208   0.200   0.196   0.197   0.197   0.193   0.196   0.202   0.198   0.203   0.207   0.222   0.221   0.216   0.211   0.201   0.205   0.203   0.194   0.198   0.196   0.192   0.194   0.183   0.182   0.185
    56.80    0.213   0.216   0.208   0.204   0.209   0.210   0.203   0.199   0.206   0.203   0.196   0.191   0.204   0.198   0.194   0.188   0.198   0.206   0.212   0.203   0.212   0.215   0.214   0.218   0.213   0.208   0.200   0.198   0.192   0.195   0.199   0.191   0.192   0.192   0.189
    52.15    0.209   0.207   0.209   0.206   0.207   0.203   0.204   0.203   0.201   0.206   0.192   0.196   0.199   0.197   0.192   0.190   0.193   0.199   0.207   0.207   0.209   0.209   0.208   0.211   0.212   0.218   0.210   0.209   0.198   0.200   0.198   0.194   0.190   0.193   0.187
    47.50    0.207   0.201   0.207   0.201   0.200   0.206   0.212   0.202   0.199   0.209   0.202   0.199   0.200   0.189   0.189   0.187   0.189   0.193   0.199   0.207   0.207   0.204   0.198   0.209   0.213   0.209   0.210   0.195   0.197   0.196   0.199   0.195   0.191   0.192   0.188
    42.85    0.199   0.202   0.200   0.201   0.200   0.203   0.206   0.209   0.206   0.196   0.199   0.195   0.201   0.195   0.186   0.187   0.190   0.188   0.195   0.197   0.204   0.206   0.197   0.204   0.199   0.200   0.196   0.195   0.193   0.201   0.195   0.195   0.189   0.195   0.188
    38.20    0.202   0.192   0.197   0.193   0.192   0.200   0.197   0.200   0.205   0.197   0.203   0.198   0.202   0.202   0.204   0.194   0.198   0.194   0.195   0.202   0.208   0.204   0.199   0.198   0.199   0.196   0.188   0.188   0.190   0.193   0.194   0.184   0.189   0.191   0.193
    33.55    0.196   0.198   0.197   0.199   0.193   0.200   0.189   0.192   0.198   0.200   0.201   0.200   0.195   0.196   0.196   0.202   0.200   0.205   0.198   0.204   0.206   0.206   0.190   0.191   0.195   0.197   0.188   0.195   0.193   0.183   0.184   0.187   0.187   0.189   0.185
    28.90    0.196   0.188   0.201   0.194   0.193   0.198   0.197   0.198   0.204   0.195   0.201   0.201   0.196   0.196   0.192   0.202   0.207   0.210   0.213   0.208   0.205   0.210   0.204   0.198   0.196   0.203   0.190   0.190   0.192   0.183   0.180   0.172   0.187   0.188   0.183
    24.25    0.201   0.191   0.192   0.193   0.197   0.198   0.204   0.203   0.205   0.197   0.202   0.198   0.199   0.200   0.204   0.210   0.211   0.209   0.217   0.212   0.209   0.210   0.199   0.205   0.196   0.195   0.204   0.193   0.195   0.192   0.188   0.184   0.185   0.191   0.193
    19.60    0.187   0.194   0.185   0.196   0.198   0.200   0.200   0.206   0.199   0.197   0.197   0.197   0.204   0.195   0.193   0.209   0.212   0.216   0.219   0.217   0.215   0.214   0.202   0.204   0.196   0.203   0.206   0.204   0.207   0.195   0.196   0.194   0.190   0.189   0.191
    14.95    0.186   0.190   0.191   0.195   0.202   0.199   0.195   0.193   0.196   0.191   0.192   0.194   0.204   0.193   0.202   0.208   0.203   0.209   0.211   0.209   0.202   0.203   0.200   0.208   0.201   0.195   0.200   0.207   0.208   0.208   0.203   0.203   0.198   0.188   0.195
    10.30    0.192   0.195   0.191   0.187   0.200   0.198   0.192   0.193   0.189   0.193   0.192   0.195   0.199   0.197   0.204   0.204   0.203   0.206   0.200   0.201   0.208   0.213   0.206   0.209   0.207   0.200   0.201   0.203   0.205   0.199   0.199   0.194   0.197   0.203   0.202
     5.65    0.194   0.193   0.190   0.190   0.192   0.195   0.188   0.190   0.192   0.188   0.192   0.201   0.200   0.199   0.196   0.200   0.201   0.203   0.200   0.200   0.203   0.213   0.216   0.212   0.208   0.208   0.206   0.199   0.202   0.202   0.195   0.197   0.199   0.197   0.198
     1.00    0.191   0.195   0.190   0.189   0.192   0.193   0.188   0.192   0.192   0.197   0.197   0.201   0.191   0.188   0.199   0.203   0.202   0.204   0.202   0.204   0.211   0.217   0.216   0.219   0.208   0.205   0.195   0.203   0.205   0.197   0.198   0.197   0.194   0.204   0.197

   Mean standard deviation across all grid points:
      u component:    0.374 m/s
      v component:    0.321 m/s
      w component:    0.195 m/s


U-component (X) statistics from the interpolated hub point:

   Mean =   9.9913 m/s
   TI   =   3.8524 %


Processing complete.  6198.4 CPU seconds used.
