
This summary file was generated by TurbSim (from OpenFAST-v3.5.3) on 20-Apr-2025 at 02:24:32.


Runtime Options:

**********  Random seed #1
    RANLUX  Type of random number generator
         F  Output binary HH turbulence parameters?
         F  Output formatted turbulence parameters?
         F  Output AeroDyn HH files?
         T  Output AeroDyn FF files?
         F  Output BLADED FF files?
         F  Output tower data?
         F  Output HAWC FF files?
         F  Output formatted FF files?
         T  Output coherent turbulence time step file?
 0 -  NONE  IEC turbulence models scaled to exact specified standard deviation


Turbine/Model Specifications:

        37  Vertical grid-point matrix dimension
        35  Horizontal grid-point matrix dimension
     0.250  Time step [seconds]
   900.000  Analysis time [seconds]
   900.000  Usable output time [seconds]
    89.350  Hub height [m]
   167.400  Grid height [m]
   158.100  Grid width [m]
     0.000  Vertical flow angle [degrees]
     0.000  Horizontal flow angle [degrees]


Meteorological Boundary Conditions:

    TIMESR  User-input time series spectral model
       N/A  IEC standard
       N/A  IEC turbulence characteristic
       N/A  IEC turbulence type
       N/A  IEC Extreme Turbulence Model (ETM) "c" parameter [m/s]
       PL   Wind profile type
    90.000  Reference height [m]
    10.000  Reference wind speed [m/s]
       N/A  Jet height [m]
     0.120  Power law exponent
     0.030  Surface roughness length [m]


Non-IEC Meteorological Boundary Conditions:

    45.000  Site latitude [degrees]
     0.050  Gradient Richardson number
     0.480  Friction or shear velocity [m/s]
       N/A  Mixing layer depth [m]
       N/A  Mean hub u'w' Reynolds stress
       N/A  Mean hub u'v' Reynolds stress
       N/A  Mean hub v'w' Reynolds stress


Spatial Coherence Models:

       IEC  u-component coherence model
       IEC  v-component coherence model
       IEC  w-component coherence model
(   12.000, 0.353E-03)  u-component coherence parameters
(   12.000, 0.353E-03)  v-component coherence parameters
(   12.000, 0.353E-03)  w-component coherence parameters
       N/A  Coherence exponent


Coherent Turbulence Scaling Parameters:

.\EventData
            Name of the path containing the coherent turbulence data files
       dns  Type of coherent turbulence data files
     1.000  Disturbance scale (ratio of wave height to rotor diameter)
     0.500  Fractional location of tower centerline from right
     0.500  Fractional location of hub height from the bottom of the dataset
    30.000  Minimum start time for coherent structures [seconds]


Profiles from User-Defined Time-Series Input:

  Height   Wind Speed   Horizontal Angle   Vertical Angle
   (m)        (m/s)          (deg)              (deg)    
  ------   ----------   ----------------   --------------
   94.00      10.00          -0.63               -0.00


You have requested that the following file(s) be generated:

   /kfs3/scratch/agupta/Projects/RL_Incubator/FinalRuns_Veer/Seed4/./FFSim_Seed4/Cond00_v10.0_PL0.12_TI6.0/Case0_wdirp00/Seed_3/TurbSim/HighT1.bts (AeroDyn/TurbSim full-field wind file)


Turbulence Simulation Scaling Parameter Summary:

   Turbulence model used                            =  User-input time series
   Gradient Richardson number                       =    0.050
   Monin-Obukhov (M-O) z/L parameter                =    0.067
   Monin-Obukhov (M-O) length scale                 = 1340.250 m
   Mean wind speed at hub height                    =    9.991 m/s

   Wind profile type                                =  Power law
   Power law exponent                               =    0.120
   Mean shear across rotor disk                     =    0.019 (m/s)/m
   Assumed rotor diameter                           =  158.100 m
   Surface roughness length                         =    0.030 m

   Nyquist frequency of turbulent wind field        =    2.000 Hz

   Number of time steps in the FFT                  =     3600
   Number of time steps output                      =     3600
   Number of points simulated                       =     1296


Mean Flow Angles:

   Vertical   =   0.0 degrees
   Horizontal =   0.0 degrees

Mean Wind Speed Profile:

   Height    Wind Speed   Horizontal Angle  Vertical Angle  U-comp (X)   V-comp (Y)   W-comp (Z)
     (m)        (m/s)         (degrees)       (degrees)       (m/s)        (m/s)        (m/s)   
   ------    ----------   ----------------  --------------  ----------   ----------   ----------
    168.4       10.78            0.00            0.00         10.78         0.00         0.00
    163.7       10.74            0.00            0.00         10.74         0.00         0.00
    159.1       10.71            0.00            0.00         10.71         0.00         0.00
    154.4       10.67            0.00            0.00         10.67         0.00         0.00
    149.8       10.63            0.00            0.00         10.63         0.00         0.00
    145.1       10.59            0.00            0.00         10.59         0.00         0.00
    140.5       10.55            0.00            0.00         10.55         0.00         0.00
    135.8       10.51            0.00            0.00         10.51         0.00         0.00
    131.2       10.46            0.00            0.00         10.46         0.00         0.00
    126.5       10.42            0.00            0.00         10.42         0.00         0.00
    121.9       10.37            0.00            0.00         10.37         0.00         0.00
    117.2       10.32            0.00            0.00         10.32         0.00         0.00
    112.6       10.27            0.00            0.00         10.27         0.00         0.00
    107.9       10.22            0.00            0.00         10.22         0.00         0.00
    103.3       10.17            0.00            0.00         10.17         0.00         0.00
     98.6       10.11            0.00            0.00         10.11         0.00         0.00
     94.0       10.05            0.00            0.00         10.05         0.00         0.00
     89.3        9.99            0.00            0.00          9.99         0.00         0.00
     84.7        9.93            0.00            0.00          9.93         0.00         0.00
     80.0        9.86            0.00            0.00          9.86         0.00         0.00
     75.4        9.79            0.00            0.00          9.79         0.00         0.00
     70.7        9.72            0.00            0.00          9.72         0.00         0.00
     66.1        9.64            0.00            0.00          9.64         0.00         0.00
     61.4        9.55            0.00            0.00          9.55         0.00         0.00
     56.8        9.46            0.00            0.00          9.46         0.00         0.00
     52.1        9.37            0.00            0.00          9.37         0.00         0.00
     47.5        9.26            0.00            0.00          9.26         0.00         0.00
     42.8        9.15            0.00            0.00          9.15         0.00         0.00
     38.2        9.02            0.00            0.00          9.02         0.00         0.00
     33.5        8.88            0.00            0.00          8.88         0.00         0.00
     28.9        8.73            0.00            0.00          8.73         0.00         0.00
     24.2        8.54            0.00            0.00          8.54         0.00         0.00
     19.6        8.33            0.00            0.00          8.33         0.00         0.00
     14.9        8.06            0.00            0.00          8.06         0.00         0.00
     10.3        7.71            0.00            0.00          7.71         0.00         0.00
      5.6        7.17            0.00            0.00          7.17         0.00         0.00
      1.0        5.83            0.00            0.00          5.83         0.00         0.00


Harvested Random Seeds after Generation of the Random Numbers:

     65026800 K 1
            0 K 2


Hub-Height Simulated Turbulence Statistical Summary:

   Type of Wind        Min (m/s)   Mean (m/s)    Max (m/s)  Sigma (m/s)       TI (%)
   ----------------    ---------   ----------    ---------  -----------       ------
   Longitudinal (u)         8.08         9.99        11.80        0.604        6.042
   Lateral (v)             -1.31        -0.00         1.45        0.397        3.973
   Vertical (w)            -1.00         0.00         0.99        0.285        2.852
   U component              8.08         9.99        11.80        0.604        6.042
   V component             -1.31        -0.00         1.45        0.397        3.973
   W component             -1.00         0.00         0.99        0.285        2.852
   Horizontal (U&V)         8.10        10.00        11.81        0.602        6.025
   Total                    8.10        10.00        11.82        0.602        6.022

                       Min Reynolds     Mean Reynolds    Max Reynolds    Correlation
   Product             Stress (m/s)^2   Stress (m/s)^2   Stress (m/s)^2  Coefficient
   ----------------    --------------   --------------   --------------  -----------
   u'w'                     -0.918             0.010             1.168         0.059
   u'v'                     -1.838             0.032             1.359         0.133
   v'w'                     -0.583            -0.000             0.626        -0.003


   Friction Velocity (Ustar)  =      0.101 m/s
   Maximum Instantaneous TKE  =      2.288 (m/s)^2
   Maximum Instantaneous CTKE =      0.920 (m/s)^2


Grid Point Variance Summary:

   Y-coord  -79.05  -74.40  -69.75  -65.10  -60.45  -55.80  -51.15  -46.50  -41.85  -37.20  -32.55  -27.90  -23.25  -18.60  -13.95   -9.30   -4.65    0.00    4.65    9.30   13.95   18.60   23.25   27.90   32.55   37.20   41.85   46.50   51.15   55.80   60.45   65.10   69.75   74.40   79.05

   Height   Standard deviation at grid points for the u component:
   168.40    0.586   0.561   0.555   0.598   0.604   0.647   0.633   0.655   0.632   0.598   0.606   0.584   0.592   0.605   0.590   0.581   0.553   0.568   0.534   0.539   0.603   0.648   0.651   0.739   0.751   0.761   0.759   0.727   0.777   0.771   0.730   0.758   0.787   0.795   0.856
   163.75    0.566   0.561   0.553   0.627   0.639   0.635   0.657   0.636   0.633   0.607   0.596   0.600   0.556   0.557   0.551   0.603   0.577   0.582   0.550   0.574   0.602   0.654   0.677   0.737   0.787   0.778   0.735   0.698   0.734   0.762   0.752   0.681   0.757   0.784   0.843
   159.10    0.550   0.525   0.554   0.583   0.622   0.667   0.658   0.609   0.590   0.615   0.572   0.561   0.580   0.597   0.616   0.599   0.587   0.612   0.571   0.636   0.628   0.642   0.688   0.742   0.785   0.790   0.805   0.727   0.725   0.663   0.709   0.713   0.701   0.741   0.763
   154.45    0.536   0.537   0.550   0.589   0.641   0.664   0.637   0.618   0.564   0.569   0.595   0.578   0.593   0.592   0.560   0.586   0.608   0.626   0.646   0.626   0.631   0.655   0.749   0.714   0.731   0.735   0.770   0.770   0.725   0.693   0.710   0.693   0.673   0.691   0.699
   149.80    0.550   0.539   0.510   0.577   0.623   0.610   0.614   0.593   0.574   0.558   0.570   0.572   0.585   0.570   0.560   0.536   0.543   0.554   0.614   0.618   0.649   0.712   0.756   0.750   0.691   0.667   0.711   0.719   0.739   0.760   0.724   0.700   0.649   0.654   0.690
   145.15    0.616   0.556   0.535   0.572   0.638   0.647   0.608   0.619   0.594   0.564   0.576   0.550   0.589   0.573   0.535   0.514   0.520   0.525   0.605   0.570   0.618   0.687   0.699   0.711   0.683   0.669   0.673   0.659   0.678   0.706   0.698   0.747   0.658   0.663   0.676
   140.50    0.636   0.614   0.624   0.622   0.647   0.659   0.666   0.654   0.590   0.588   0.596   0.582   0.578   0.535   0.527   0.498   0.529   0.561   0.569   0.607   0.633   0.647   0.691   0.685   0.689   0.691   0.651   0.692   0.638   0.682   0.673   0.690   0.681   0.658   0.643
   135.85    0.676   0.654   0.637   0.652   0.634   0.632   0.631   0.599   0.569   0.594   0.579   0.572   0.589   0.588   0.538   0.529   0.552   0.553   0.567   0.587   0.601   0.658   0.637   0.683   0.680   0.679   0.693   0.709   0.693   0.708   0.760   0.700   0.671   0.636   0.654
   131.20    0.679   0.654   0.691   0.621   0.648   0.656   0.635   0.613   0.592   0.587   0.569   0.586   0.583   0.587   0.575   0.614   0.583   0.573   0.587   0.565   0.602   0.637   0.675   0.695   0.728   0.710   0.750   0.750   0.744   0.725   0.722   0.743   0.653   0.667   0.676
   126.55    0.693   0.642   0.635   0.658   0.656   0.639   0.666   0.631   0.654   0.616   0.569   0.551   0.569   0.601   0.575   0.593   0.585   0.600   0.619   0.609   0.610   0.630   0.635   0.668   0.691   0.728   0.744   0.697   0.729   0.706   0.684   0.690   0.655   0.647   0.660
   121.90    0.662   0.683   0.687   0.664   0.696   0.656   0.664   0.684   0.660   0.646   0.587   0.585   0.574   0.577   0.581   0.524   0.521   0.541   0.623   0.610   0.640   0.639   0.629   0.672   0.717   0.720   0.733   0.738   0.703   0.694   0.696   0.730   0.736   0.682   0.672
   117.25    0.716   0.699   0.669   0.682   0.671   0.645   0.715   0.663   0.659   0.637   0.637   0.588   0.576   0.566   0.541   0.552   0.493   0.508   0.595   0.614   0.608   0.586   0.623   0.631   0.729   0.745   0.709   0.744   0.686   0.692   0.696   0.718   0.747   0.672   0.695
   112.60    0.706   0.657   0.654   0.707   0.705   0.659   0.693   0.669   0.679   0.674   0.626   0.611   0.560   0.587   0.564   0.526   0.523   0.530   0.571   0.549   0.544   0.571   0.632   0.653   0.740   0.768   0.725   0.710   0.708   0.766   0.746   0.745   0.699   0.691   0.713
   107.95    0.638   0.647   0.668   0.692   0.718   0.667   0.667   0.642   0.653   0.637   0.583   0.576   0.550   0.596   0.585   0.553   0.576   0.519   0.527   0.553   0.553   0.582   0.670   0.689   0.733   0.736   0.722   0.688   0.775   0.780   0.726   0.684   0.699   0.666   0.652
   103.30    0.674   0.692   0.627   0.699   0.684   0.642   0.629   0.617   0.644   0.607   0.583   0.588   0.575   0.593   0.569   0.578   0.562   0.544   0.542   0.584   0.584   0.602   0.641   0.693   0.731   0.714   0.725   0.731   0.794   0.779   0.725   0.697   0.677   0.626   0.625
    98.65    0.675   0.648   0.676   0.671   0.650   0.584   0.573   0.592   0.660   0.620   0.629   0.609   0.617   0.609   0.590   0.583   0.586   0.575   0.585   0.603   0.583   0.624   0.681   0.673   0.699   0.716   0.737   0.760   0.779   0.784   0.706   0.675   0.713   0.642   0.615
    94.00    0.664   0.654   0.685   0.680   0.664   0.620   0.611   0.608   0.625   0.615   0.593   0.604   0.634   0.649   0.607   0.583   0.614   0.601   0.581   0.640   0.683   0.699   0.689   0.692   0.722   0.744   0.783   0.763   0.743   0.756   0.691   0.660   0.666   0.677   0.656
    89.35    0.647   0.631   0.634   0.629   0.640   0.596   0.644   0.593   0.627   0.603   0.587   0.597   0.601   0.580   0.607   0.598   0.616   0.604   0.587   0.639   0.703   0.719   0.693   0.701   0.685   0.677   0.720   0.700   0.683   0.736   0.736   0.671   0.637   0.672   0.647
    84.70    0.656   0.606   0.606   0.597   0.598   0.607   0.624   0.626   0.601   0.610   0.604   0.578   0.596   0.573   0.551   0.597   0.616   0.587   0.608   0.642   0.662   0.673   0.690   0.691   0.675   0.721   0.716   0.699   0.671   0.702   0.699   0.670   0.679   0.695   0.625
    80.05    0.629   0.575   0.554   0.573   0.593   0.588   0.560   0.580   0.600   0.580   0.585   0.577   0.573   0.570   0.568   0.574   0.600   0.640   0.641   0.671   0.689   0.654   0.662   0.699   0.697   0.725   0.735   0.689   0.650   0.705   0.719   0.690   0.720   0.657   0.613
    75.40    0.635   0.576   0.565   0.574   0.515   0.520   0.541   0.597   0.585   0.595   0.579   0.569   0.616   0.583   0.579   0.577   0.650   0.694   0.686   0.680   0.714   0.662   0.679   0.653   0.694   0.749   0.738   0.717   0.686   0.688   0.711   0.663   0.711   0.642   0.656
    70.75    0.614   0.572   0.564   0.615   0.575   0.563   0.609   0.580   0.582   0.586   0.589   0.593   0.634   0.612   0.583   0.597   0.641   0.703   0.730   0.704   0.733   0.704   0.700   0.644   0.676   0.695   0.717   0.669   0.671   0.641   0.669   0.692   0.705   0.668   0.649
    66.10    0.595   0.578   0.610   0.633   0.585   0.613   0.641   0.633   0.601   0.589   0.561   0.592   0.601   0.631   0.630   0.606   0.616   0.682   0.701   0.699   0.739   0.715   0.695   0.651   0.648   0.719   0.726   0.707   0.642   0.657   0.676   0.691   0.694   0.669   0.644
    61.45    0.576   0.570   0.619   0.618   0.609   0.631   0.618   0.578   0.592   0.631   0.599   0.554   0.590   0.616   0.661   0.629   0.668   0.721   0.704   0.725   0.696   0.705   0.662   0.631   0.647   0.690   0.727   0.694   0.623   0.663   0.655   0.698   0.716   0.650   0.595
    56.80    0.599   0.559   0.627   0.668   0.616   0.644   0.624   0.602   0.612   0.619   0.610   0.582   0.576   0.577   0.632   0.652   0.703   0.726   0.694   0.718   0.721   0.736   0.685   0.634   0.620   0.670   0.710   0.682   0.668   0.653   0.613   0.632   0.661   0.664   0.627
    52.15    0.610   0.611   0.651   0.654   0.615   0.671   0.613   0.626   0.589   0.613   0.608   0.586   0.546   0.547   0.595   0.670   0.694   0.694   0.677   0.695   0.737   0.712   0.682   0.632   0.606   0.640   0.675   0.721   0.698   0.669   0.613   0.578   0.644   0.610   0.581
    47.50    0.573   0.569   0.584   0.618   0.653   0.658   0.619   0.627   0.643   0.634   0.617   0.580   0.542   0.570   0.580   0.668   0.691   0.722   0.730   0.753   0.730   0.707   0.661   0.618   0.552   0.587   0.621   0.647   0.669   0.689   0.655   0.606   0.638   0.630   0.609
    42.85    0.642   0.598   0.632   0.629   0.644   0.620   0.631   0.631   0.597   0.613   0.659   0.641   0.582   0.614   0.626   0.656   0.700   0.711   0.737   0.768   0.709   0.690   0.620   0.596   0.549   0.557   0.565   0.620   0.651   0.665   0.624   0.592   0.636   0.660   0.624
    38.20    0.623   0.608   0.643   0.609   0.623   0.643   0.666   0.605   0.617   0.622   0.640   0.630   0.632   0.661   0.673   0.648   0.703   0.727   0.765   0.697   0.712   0.684   0.608   0.592   0.605   0.546   0.591   0.605   0.660   0.657   0.653   0.634   0.668   0.671   0.610
    33.55    0.652   0.635   0.628   0.614   0.642   0.650   0.674   0.652   0.602   0.652   0.667   0.663   0.685   0.692   0.690   0.711   0.749   0.743   0.720   0.706   0.702   0.672   0.630   0.608   0.595   0.592   0.604   0.603   0.653   0.674   0.656   0.651   0.717   0.678   0.708
    28.90    0.637   0.616   0.603   0.606   0.603   0.635   0.639   0.651   0.607   0.635   0.622   0.626   0.670   0.686   0.681   0.686   0.737   0.695   0.721   0.727   0.684   0.638   0.621   0.581   0.591   0.584   0.634   0.668   0.662   0.640   0.668   0.726   0.668   0.693   0.686
    24.25    0.642   0.623   0.589   0.571   0.629   0.591   0.592   0.590   0.619   0.649   0.626   0.648   0.662   0.673   0.700   0.701   0.707   0.721   0.742   0.735   0.684   0.632   0.620   0.604   0.620   0.624   0.625   0.665   0.652   0.641   0.639   0.708   0.688   0.652   0.643
    19.60    0.635   0.599   0.579   0.616   0.611   0.597   0.574   0.576   0.593   0.629   0.608   0.640   0.643   0.658   0.709   0.710   0.717   0.750   0.720   0.699   0.636   0.640   0.641   0.633   0.647   0.639   0.640   0.640   0.645   0.616   0.614   0.671   0.634   0.626   0.641
    14.95    0.624   0.584   0.593   0.584   0.570   0.592   0.544   0.585   0.583   0.597   0.641   0.657   0.675   0.647   0.671   0.677   0.730   0.740   0.737   0.692   0.666   0.672   0.692   0.613   0.624   0.659   0.642   0.627   0.656   0.628   0.599   0.632   0.650   0.633   0.619
    10.30    0.627   0.603   0.577   0.618   0.597   0.571   0.546   0.538   0.576   0.548   0.615   0.611   0.627   0.630   0.615   0.622   0.675   0.705   0.682   0.669   0.660   0.667   0.633   0.621   0.636   0.627   0.629   0.619   0.645   0.645   0.644   0.598   0.592   0.614   0.646
     5.65    0.654   0.612   0.562   0.581   0.574   0.533   0.501   0.533   0.557   0.577   0.566   0.566   0.586   0.584   0.581   0.632   0.630   0.666   0.656   0.651   0.630   0.649   0.619   0.623   0.646   0.623   0.637   0.656   0.611   0.617   0.646   0.602   0.606   0.613   0.648
     1.00    0.600   0.620   0.568   0.540   0.522   0.509   0.470   0.530   0.517   0.540   0.541   0.553   0.553   0.581   0.555   0.576   0.634   0.616   0.602   0.601   0.587   0.582   0.567   0.574   0.593   0.560   0.599   0.591   0.601   0.596   0.634   0.626   0.637   0.570   0.584

   Height   Standard deviation at grid points for the v component:
   168.40    0.413   0.417   0.386   0.391   0.387   0.394   0.411   0.424   0.415   0.427   0.405   0.412   0.422   0.432   0.432   0.408   0.415   0.399   0.426   0.404   0.394   0.382   0.395   0.370   0.354   0.364   0.393   0.383   0.393   0.416   0.400   0.395   0.389   0.414   0.429
   163.75    0.419   0.378   0.371   0.377   0.392   0.413   0.398   0.418   0.424   0.430   0.428   0.433   0.441   0.418   0.424   0.428   0.425   0.393   0.429   0.415   0.417   0.413   0.382   0.375   0.360   0.376   0.383   0.389   0.404   0.409   0.399   0.401   0.403   0.403   0.419
   159.10    0.409   0.391   0.376   0.383   0.378   0.409   0.424   0.418   0.432   0.422   0.449   0.428   0.441   0.424   0.427   0.435   0.436   0.418   0.424   0.413   0.426   0.407   0.391   0.389   0.375   0.363   0.393   0.419   0.408   0.403   0.396   0.398   0.375   0.397   0.399
   154.45    0.409   0.395   0.393   0.387   0.395   0.401   0.437   0.455   0.434   0.440   0.419   0.409   0.435   0.443   0.447   0.452   0.427   0.426   0.439   0.435   0.418   0.421   0.413   0.398   0.378   0.388   0.403   0.411   0.403   0.412   0.400   0.384   0.380   0.390   0.407
   149.80    0.431   0.431   0.404   0.415   0.413   0.454   0.444   0.436   0.442   0.430   0.410   0.422   0.427   0.440   0.440   0.450   0.451   0.452   0.437   0.428   0.427   0.427   0.421   0.388   0.384   0.395   0.391   0.383   0.386   0.376   0.387   0.377   0.369   0.379   0.404
   145.15    0.444   0.436   0.426   0.407   0.430   0.422   0.432   0.438   0.448   0.429   0.415   0.443   0.428   0.453   0.431   0.456   0.448   0.453   0.437   0.428   0.428   0.427   0.416   0.397   0.395   0.392   0.397   0.392   0.399   0.381   0.371   0.382   0.357   0.378   0.372
   140.50    0.460   0.438   0.439   0.430   0.420   0.393   0.407   0.412   0.429   0.432   0.427   0.428   0.435   0.445   0.447   0.459   0.472   0.461   0.417   0.424   0.410   0.406   0.404   0.384   0.388   0.378   0.396   0.391   0.387   0.389   0.374   0.382   0.351   0.363   0.356
   135.85    0.445   0.448   0.462   0.422   0.420   0.410   0.408   0.396   0.425   0.421   0.441   0.453   0.446   0.442   0.434   0.445   0.464   0.421   0.399   0.401   0.399   0.392   0.396   0.383   0.393   0.391   0.401   0.381   0.380   0.381   0.371   0.369   0.368   0.341   0.347
   131.20    0.413   0.455   0.444   0.444   0.416   0.390   0.416   0.405   0.389   0.413   0.432   0.435   0.449   0.462   0.444   0.447   0.449   0.407   0.412   0.388   0.409   0.392   0.402   0.405   0.404   0.376   0.386   0.381   0.375   0.372   0.367   0.380   0.352   0.350   0.356
   126.55    0.446   0.455   0.454   0.434   0.425   0.392   0.401   0.391   0.389   0.408   0.427   0.444   0.449   0.437   0.459   0.446   0.429   0.408   0.406   0.395   0.388   0.400   0.393   0.402   0.403   0.397   0.408   0.405   0.398   0.396   0.380   0.366   0.367   0.366   0.390
   121.90    0.433   0.420   0.417   0.422   0.401   0.397   0.395   0.411   0.396   0.407   0.423   0.428   0.446   0.431   0.437   0.432   0.430   0.418   0.391   0.396   0.399   0.399   0.395   0.376   0.379   0.384   0.394   0.386   0.419   0.401   0.376   0.374   0.381   0.363   0.376
   117.25    0.426   0.419   0.408   0.411   0.404   0.405   0.389   0.415   0.404   0.416   0.446   0.438   0.445   0.441   0.414   0.429   0.421   0.398   0.387   0.393   0.396   0.402   0.402   0.390   0.378   0.364   0.379   0.392   0.389   0.380   0.386   0.386   0.393   0.375   0.362
   112.60    0.420   0.415   0.419   0.428   0.401   0.392   0.379   0.387   0.413   0.445   0.447   0.437   0.448   0.440   0.435   0.415   0.414   0.405   0.396   0.409   0.413   0.403   0.381   0.373   0.386   0.362   0.387   0.387   0.391   0.398   0.398   0.388   0.407   0.386   0.383
   107.95    0.444   0.428   0.423   0.431   0.418   0.402   0.383   0.395   0.407   0.427   0.438   0.454   0.452   0.431   0.433   0.431   0.409   0.417   0.431   0.414   0.404   0.393   0.375   0.372   0.376   0.377   0.376   0.385   0.388   0.405   0.385   0.380   0.407   0.412   0.398
   103.30    0.455   0.440   0.421   0.433   0.430   0.430   0.416   0.404   0.398   0.422   0.427   0.451   0.457   0.434   0.413   0.420   0.398   0.412   0.436   0.430   0.405   0.396   0.375   0.354   0.370   0.373   0.388   0.386   0.370   0.397   0.391   0.395   0.397   0.402   0.400
    98.65    0.464   0.461   0.455   0.451   0.448   0.439   0.427   0.424   0.414   0.411   0.431   0.447   0.447   0.438   0.426   0.408   0.409   0.410   0.434   0.425   0.397   0.379   0.372   0.366   0.370   0.377   0.375   0.372   0.395   0.398   0.383   0.404   0.403   0.400   0.382
    94.00    0.458   0.450   0.453   0.438   0.462   0.470   0.457   0.444   0.414   0.437   0.437   0.445   0.452   0.428   0.431   0.418   0.420   0.397   0.429   0.435   0.398   0.386   0.384   0.371   0.362   0.371   0.369   0.379   0.401   0.383   0.406   0.413   0.405   0.416   0.420
    89.35    0.444   0.453   0.446   0.432   0.455   0.456   0.474   0.449   0.440   0.434   0.442   0.437   0.433   0.436   0.416   0.406   0.412   0.397   0.419   0.391   0.395   0.392   0.371   0.384   0.367   0.372   0.386   0.388   0.386   0.382   0.405   0.407   0.420   0.428   0.418
    84.70    0.420   0.454   0.440   0.426   0.448   0.439   0.466   0.487   0.479   0.432   0.451   0.444   0.431   0.428   0.400   0.402   0.412   0.389   0.393   0.406   0.396   0.382   0.375   0.373   0.367   0.374   0.386   0.388   0.399   0.403   0.401   0.405   0.413   0.411   0.434
    80.05    0.418   0.433   0.423   0.424   0.427   0.421   0.448   0.470   0.474   0.446   0.427   0.439   0.448   0.436   0.404   0.417   0.414   0.387   0.390   0.379   0.374   0.387   0.371   0.365   0.366   0.372   0.354   0.395   0.404   0.410   0.414   0.430   0.415   0.446   0.438
    75.40    0.416   0.434   0.430   0.441   0.427   0.420   0.446   0.457   0.459   0.452   0.443   0.436   0.455   0.423   0.408   0.404   0.418   0.376   0.390   0.376   0.368   0.374   0.360   0.352   0.367   0.350   0.376   0.394   0.390   0.393   0.429   0.434   0.415   0.422   0.437
    70.75    0.421   0.433   0.416   0.422   0.431   0.433   0.441   0.444   0.439   0.439   0.434   0.435   0.448   0.446   0.414   0.407   0.393   0.382   0.371   0.365   0.376   0.371   0.374   0.365   0.382   0.377   0.387   0.382   0.386   0.396   0.410   0.426   0.429   0.421   0.431
    66.10    0.417   0.418   0.429   0.426   0.432   0.430   0.421   0.442   0.450   0.430   0.428   0.437   0.440   0.438   0.427   0.416   0.408   0.391   0.387   0.381   0.391   0.376   0.373   0.375   0.363   0.375   0.378   0.396   0.382   0.395   0.391   0.390   0.412   0.413   0.416
    61.45    0.407   0.419   0.420   0.429   0.402   0.413   0.412   0.420   0.443   0.428   0.439   0.450   0.443   0.423   0.425   0.412   0.396   0.381   0.386   0.376   0.370   0.390   0.387   0.375   0.371   0.368   0.376   0.378   0.399   0.409   0.403   0.400   0.416   0.387   0.391
    56.80    0.417   0.412   0.416   0.405   0.399   0.407   0.411   0.423   0.414   0.430   0.444   0.447   0.438   0.428   0.415   0.398   0.396   0.389   0.378   0.377   0.375   0.386   0.389   0.378   0.373   0.362   0.366   0.389   0.383   0.393   0.391   0.400   0.394   0.385   0.395
    52.15    0.401   0.404   0.400   0.398   0.413   0.401   0.400   0.398   0.420   0.436   0.446   0.434   0.438   0.426   0.421   0.404   0.396   0.386   0.381   0.383   0.380   0.383   0.370   0.369   0.373   0.377   0.372   0.369   0.361   0.367   0.372   0.391   0.389   0.394   0.375
    47.50    0.435   0.421   0.414   0.399   0.399   0.404   0.408   0.403   0.405   0.415   0.452   0.467   0.459   0.445   0.402   0.399   0.396   0.398   0.368   0.373   0.379   0.385   0.385   0.382   0.378   0.383   0.385   0.377   0.382   0.372   0.381   0.369   0.383   0.388   0.383
    42.85    0.444   0.433   0.399   0.422   0.418   0.426   0.406   0.411   0.428   0.428   0.451   0.445   0.464   0.467   0.431   0.408   0.413   0.407   0.407   0.408   0.403   0.402   0.406   0.394   0.369   0.353   0.378   0.384   0.381   0.376   0.380   0.366   0.370   0.397   0.373
    38.20    0.439   0.421   0.414   0.412   0.407   0.414   0.409   0.421   0.424   0.431   0.452   0.451   0.451   0.449   0.435   0.404   0.406   0.407   0.426   0.414   0.421   0.380   0.387   0.395   0.352   0.353   0.364   0.398   0.399   0.393   0.360   0.355   0.375   0.396   0.404
    33.55    0.441   0.419   0.423   0.410   0.400   0.399   0.395   0.401   0.426   0.443   0.453   0.464   0.465   0.437   0.437   0.422   0.431   0.415   0.420   0.439   0.441   0.406   0.389   0.388   0.362   0.350   0.385   0.393   0.375   0.361   0.359   0.364   0.382   0.388   0.393
    28.90    0.416   0.413   0.412   0.404   0.406   0.409   0.393   0.406   0.419   0.432   0.443   0.469   0.456   0.457   0.448   0.437   0.418   0.433   0.421   0.441   0.428   0.423   0.391   0.384   0.368   0.365   0.382   0.390   0.382   0.375   0.362   0.353   0.372   0.390   0.384
    24.25    0.408   0.428   0.408   0.413   0.417   0.425   0.409   0.434   0.447   0.454   0.448   0.445   0.460   0.460   0.456   0.450   0.443   0.427   0.430   0.438   0.417   0.417   0.414   0.394   0.376   0.375   0.375   0.391   0.400   0.389   0.372   0.375   0.368   0.397   0.391
    19.60    0.423   0.436   0.425   0.407   0.424   0.422   0.432   0.420   0.450   0.430   0.451   0.464   0.463   0.468   0.468   0.449   0.467   0.448   0.431   0.431   0.430   0.407   0.403   0.387   0.372   0.373   0.383   0.374   0.397   0.383   0.392   0.391   0.382   0.365   0.387
    14.95    0.421   0.430   0.424   0.429   0.418   0.440   0.450   0.430   0.464   0.451   0.458   0.469   0.473   0.470   0.468   0.486   0.476   0.453   0.428   0.421   0.409   0.389   0.384   0.364   0.352   0.363   0.374   0.380   0.380   0.403   0.406   0.382   0.367   0.376   0.396
    10.30    0.428   0.419   0.451   0.454   0.448   0.439   0.433   0.435   0.465   0.452   0.458   0.454   0.476   0.471   0.458   0.472   0.506   0.460   0.425   0.403   0.405   0.393   0.365   0.364   0.361   0.355   0.356   0.376   0.370   0.385   0.379   0.360   0.383   0.383   0.379
     5.65    0.436   0.436   0.425   0.442   0.448   0.448   0.435   0.437   0.436   0.444   0.474   0.447   0.462   0.439   0.435   0.449   0.484   0.484   0.454   0.419   0.390   0.399   0.385   0.387   0.373   0.360   0.354   0.355   0.360   0.368   0.361   0.391   0.391   0.400   0.390
     1.00    0.420   0.418   0.419   0.434   0.422   0.438   0.436   0.427   0.438   0.438   0.446   0.451   0.448   0.445   0.434   0.436   0.445   0.454   0.438   0.430   0.405   0.403   0.398   0.409   0.387   0.378   0.376   0.365   0.374   0.368   0.373   0.389   0.391   0.402   0.388

   Height   Standard deviation at grid points for the w component:
   168.40    0.303   0.310   0.311   0.306   0.301   0.306   0.305   0.292   0.300   0.307   0.289   0.297   0.284   0.285   0.315   0.327   0.331   0.339   0.327   0.319   0.292   0.290   0.299   0.284   0.270   0.283   0.282   0.278   0.278   0.276   0.275   0.273   0.281   0.281   0.275
   163.75    0.299   0.315   0.297   0.301   0.305   0.303   0.300   0.301   0.285   0.297   0.293   0.311   0.299   0.311   0.318   0.327   0.328   0.329   0.318   0.304   0.293   0.281   0.289   0.278   0.276   0.287   0.304   0.296   0.278   0.262   0.270   0.286   0.282   0.282   0.282
   159.10    0.295   0.292   0.287   0.303   0.306   0.305   0.304   0.297   0.292   0.277   0.300   0.309   0.304   0.319   0.310   0.323   0.324   0.304   0.318   0.320   0.302   0.284   0.282   0.270   0.284   0.294   0.309   0.300   0.305   0.274   0.279   0.291   0.290   0.282   0.290
   154.45    0.279   0.288   0.274   0.287   0.307   0.308   0.303   0.285   0.276   0.284   0.302   0.298   0.313   0.301   0.303   0.319   0.313   0.303   0.311   0.309   0.307   0.297   0.283   0.276   0.287   0.296   0.309   0.300   0.298   0.287   0.286   0.292   0.283   0.288   0.299
   149.80    0.283   0.274   0.279   0.278   0.287   0.290   0.283   0.286   0.288   0.292   0.302   0.304   0.309   0.317   0.311   0.307   0.306   0.305   0.288   0.296   0.300   0.288   0.287   0.292   0.289   0.287   0.289   0.289   0.283   0.293   0.294   0.294   0.289   0.301   0.302
   145.15    0.281   0.273   0.290   0.287   0.285   0.279   0.276   0.293   0.286   0.287   0.299   0.283   0.302   0.309   0.305   0.304   0.307   0.293   0.295   0.306   0.296   0.296   0.286   0.279   0.283   0.272   0.276   0.288   0.287   0.283   0.280   0.288   0.287   0.296   0.293
   140.50    0.283   0.280   0.284   0.282   0.274   0.272   0.277   0.286   0.289   0.287   0.291   0.296   0.296   0.297   0.304   0.321   0.311   0.309   0.302   0.318   0.295   0.285   0.296   0.289   0.282   0.291   0.277   0.284   0.280   0.280   0.285   0.280   0.276   0.279   0.283
   135.85    0.280   0.276   0.274   0.273   0.268   0.271   0.270   0.287   0.291   0.312   0.293   0.319   0.305   0.315   0.309   0.323   0.309   0.293   0.311   0.303   0.294   0.300   0.306   0.299   0.284   0.281   0.273   0.285   0.280   0.281   0.286   0.270   0.278   0.276   0.272
   131.20    0.277   0.286   0.286   0.287   0.284   0.274   0.273   0.284   0.288   0.299   0.306   0.313   0.311   0.313   0.304   0.303   0.291   0.308   0.294   0.297   0.304   0.309   0.306   0.290   0.282   0.274   0.264   0.277   0.283   0.296   0.300   0.288   0.283   0.284   0.280
   126.55    0.283   0.285   0.287   0.284   0.278   0.274   0.266   0.277   0.284   0.278   0.293   0.296   0.301   0.302   0.299   0.291   0.307   0.290   0.301   0.291   0.299   0.293   0.299   0.301   0.280   0.273   0.274   0.279   0.279   0.284   0.285   0.281   0.279   0.277   0.286
   121.90    0.273   0.271   0.281   0.282   0.287   0.271   0.284   0.275   0.289   0.283   0.295   0.288   0.289   0.300   0.298   0.294   0.303   0.308   0.291   0.300   0.297   0.308   0.302   0.309   0.282   0.281   0.280   0.290   0.294   0.286   0.285   0.274   0.289   0.292   0.285
   117.25    0.279   0.282   0.283   0.296   0.293   0.285   0.290   0.280   0.280   0.279   0.289   0.296   0.295   0.295   0.298   0.288   0.289   0.289   0.282   0.289   0.307   0.291   0.299   0.302   0.309   0.296   0.278   0.290   0.303   0.294   0.278   0.278   0.285   0.280   0.267
   112.60    0.282   0.294   0.294   0.287   0.298   0.290   0.278   0.289   0.293   0.297   0.288   0.302   0.301   0.301   0.285   0.294   0.291   0.292   0.292   0.293   0.311   0.306   0.294   0.301   0.313   0.297   0.285   0.295   0.289   0.295   0.292   0.271   0.281   0.282   0.282
   107.95    0.288   0.287   0.299   0.292   0.297   0.301   0.285   0.289   0.287   0.284   0.300   0.308   0.300   0.287   0.298   0.293   0.301   0.299   0.288   0.291   0.302   0.306   0.286   0.305   0.311   0.301   0.292   0.289   0.295   0.300   0.289   0.273   0.286   0.281   0.287
   103.30    0.281   0.280   0.279   0.296   0.284   0.292   0.289   0.294   0.294   0.292   0.284   0.285   0.284   0.294   0.296   0.306   0.294   0.296   0.280   0.285   0.294   0.279   0.296   0.300   0.298   0.293   0.285   0.278   0.283   0.284   0.278   0.278   0.284   0.290   0.287
    98.65    0.281   0.280   0.278   0.290   0.281   0.287   0.294   0.299   0.292   0.295   0.293   0.297   0.283   0.296   0.290   0.291   0.283   0.291   0.287   0.288   0.278   0.279   0.286   0.289   0.294   0.286   0.288   0.284   0.280   0.280   0.290   0.290   0.289   0.291   0.283
    94.00    0.282   0.273   0.284   0.279   0.287   0.291   0.300   0.296   0.296   0.304   0.298   0.286   0.289   0.286   0.291   0.289   0.289   0.286   0.288   0.291   0.281   0.281   0.282   0.287   0.297   0.292   0.293   0.285   0.287   0.288   0.296   0.292   0.289   0.291   0.274
    89.35    0.289   0.289   0.281   0.271   0.281   0.288   0.289   0.296   0.296   0.294   0.289   0.289   0.290   0.276   0.281   0.264   0.284   0.285   0.288   0.279   0.278   0.277   0.285   0.287   0.295   0.287   0.294   0.295   0.285   0.283   0.285   0.309   0.295   0.294   0.297
    84.70    0.298   0.292   0.282   0.289   0.293   0.293   0.292   0.292   0.296   0.309   0.302   0.283   0.282   0.280   0.273   0.281   0.286   0.276   0.281   0.290   0.293   0.290   0.288   0.285   0.291   0.311   0.295   0.288   0.280   0.283   0.290   0.297   0.297   0.297   0.293
    80.05    0.291   0.298   0.284   0.288   0.297   0.310   0.304   0.305   0.300   0.302   0.298   0.293   0.292   0.271   0.268   0.282   0.279   0.282   0.293   0.300   0.294   0.277   0.287   0.290   0.286   0.300   0.295   0.291   0.291   0.293   0.288   0.293   0.297   0.297   0.291
    75.40    0.289   0.280   0.287   0.289   0.304   0.318   0.304   0.301   0.301   0.288   0.296   0.284   0.283   0.288   0.284   0.282   0.289   0.294   0.296   0.292   0.297   0.294   0.302   0.299   0.284   0.280   0.283   0.289   0.294   0.291   0.302   0.285   0.298   0.292   0.284
    70.75    0.281   0.290   0.284   0.296   0.296   0.304   0.293   0.289   0.296   0.293   0.297   0.290   0.284   0.276   0.280   0.296   0.290   0.302   0.291   0.282   0.276   0.285   0.308   0.289   0.282   0.284   0.278   0.299   0.305   0.302   0.293   0.289   0.298   0.298   0.270
    66.10    0.283   0.284   0.286   0.292   0.290   0.288   0.282   0.291   0.280   0.290   0.288   0.285   0.282   0.282   0.283   0.283   0.291   0.301   0.288   0.289   0.290   0.298   0.310   0.283   0.282   0.277   0.286   0.298   0.308   0.296   0.293   0.298   0.292   0.301   0.286
    61.45    0.288   0.281   0.286   0.284   0.283   0.289   0.293   0.295   0.288   0.287   0.282   0.281   0.276   0.274   0.283   0.288   0.291   0.308   0.297   0.293   0.282   0.293   0.298   0.277   0.272   0.280   0.286   0.291   0.290   0.302   0.308   0.300   0.287   0.303   0.290
    56.80    0.308   0.296   0.295   0.296   0.286   0.286   0.295   0.299   0.292   0.286   0.293   0.280   0.286   0.284   0.286   0.285   0.288   0.295   0.304   0.278   0.283   0.292   0.288   0.275   0.282   0.279   0.288   0.299   0.298   0.302   0.309   0.292   0.280   0.298   0.291
    52.15    0.304   0.313   0.304   0.290   0.294   0.301   0.312   0.297   0.296   0.287   0.293   0.297   0.296   0.286   0.291   0.274   0.283   0.288   0.290   0.289   0.282   0.297   0.276   0.278   0.277   0.292   0.287   0.298   0.298   0.298   0.300   0.290   0.287   0.282   0.294
    47.50    0.302   0.305   0.307   0.289   0.286   0.292   0.295   0.288   0.294   0.293   0.287   0.286   0.287   0.297   0.287   0.286   0.291   0.286   0.290   0.297   0.301   0.305   0.294   0.290   0.279   0.278   0.291   0.290   0.296   0.298   0.302   0.295   0.276   0.293   0.292
    42.85    0.299   0.291   0.289   0.280   0.287   0.288   0.295   0.287   0.291   0.280   0.286   0.291   0.293   0.290   0.276   0.280   0.273   0.289   0.298   0.318   0.300   0.301   0.295   0.308   0.288   0.287   0.284   0.289   0.285   0.294   0.301   0.291   0.292   0.294   0.287
    38.20    0.310   0.294   0.285   0.284   0.275   0.279   0.296   0.290   0.304   0.292   0.286   0.294   0.288   0.294   0.277   0.278   0.293   0.278   0.298   0.308   0.305   0.298   0.313   0.305   0.298   0.302   0.285   0.277   0.279   0.286   0.292   0.285   0.279   0.283   0.291
    33.55    0.306   0.296   0.293   0.294   0.288   0.291   0.304   0.308   0.295   0.306   0.311   0.290   0.298   0.301   0.295   0.280   0.308   0.291   0.299   0.301   0.309   0.311   0.311   0.307   0.306   0.317   0.286   0.293   0.288   0.292   0.284   0.293   0.279   0.286   0.292
    28.90    0.310   0.308   0.302   0.298   0.281   0.287   0.300   0.302   0.312   0.310   0.317   0.302   0.299   0.294   0.301   0.286   0.302   0.286   0.324   0.310   0.326   0.322   0.298   0.308   0.307   0.316   0.314   0.292   0.285   0.298   0.296   0.288   0.286   0.294   0.295
    24.25    0.305   0.317   0.305   0.295   0.281   0.289   0.293   0.298   0.304   0.310   0.313   0.289   0.294   0.302   0.305   0.297   0.280   0.285   0.320   0.317   0.335   0.337   0.317   0.310   0.289   0.302   0.302   0.297   0.301   0.302   0.294   0.309   0.297   0.302   0.300
    19.60    0.289   0.309   0.312   0.299   0.292   0.295   0.293   0.295   0.300   0.293   0.299   0.288   0.292   0.299   0.302   0.281   0.279   0.295   0.299   0.327   0.332   0.336   0.323   0.307   0.291   0.306   0.309   0.297   0.292   0.300   0.308   0.303   0.294   0.306   0.303
    14.95    0.301   0.306   0.304   0.309   0.299   0.293   0.288   0.296   0.300   0.287   0.286   0.289   0.285   0.276   0.292   0.287   0.277   0.299   0.315   0.315   0.336   0.330   0.325   0.306   0.319   0.319   0.308   0.308   0.299   0.284   0.298   0.303   0.297   0.304   0.291
    10.30    0.301   0.298   0.303   0.308   0.305   0.298   0.286   0.299   0.285   0.281   0.284   0.279   0.277   0.269   0.285   0.280   0.293   0.299   0.298   0.311   0.314   0.319   0.319   0.311   0.305   0.318   0.299   0.294   0.290   0.286   0.285   0.292   0.300   0.286   0.287
     5.65    0.297   0.294   0.299   0.299   0.295   0.293   0.293   0.284   0.281   0.301   0.291   0.284   0.277   0.270   0.283   0.273   0.279   0.290   0.293   0.292   0.293   0.310   0.311   0.311   0.314   0.309   0.317   0.290   0.289   0.276   0.286   0.291   0.276   0.286   0.274
     1.00    0.290   0.291   0.292   0.297   0.301   0.300   0.293   0.281   0.283   0.295   0.307   0.284   0.276   0.277   0.284   0.278   0.281   0.280   0.299   0.292   0.303   0.308   0.311   0.318   0.325   0.327   0.311   0.302   0.285   0.287   0.284   0.287   0.281   0.285   0.285

   Mean standard deviation across all grid points:
      u component:    0.640 m/s
      v component:    0.410 m/s
      w component:    0.293 m/s


U-component (X) statistics from the interpolated hub point:

   Mean =   9.9913 m/s
   TI   =   6.0419 %


Processing complete.  6060.9 CPU seconds used.
