
This summary file was generated by TurbSim (from OpenFAST-v3.5.3) on 20-Apr-2025 at 05:33:17.


Runtime Options:

**********  Random seed #1
    RANLUX  Type of random number generator
         F  Output binary HH turbulence parameters?
         F  Output formatted turbulence parameters?
         F  Output AeroDyn HH files?
         T  Output AeroDyn FF files?
         F  Output BLADED FF files?
         F  Output tower data?
         F  Output HAWC FF files?
         F  Output formatted FF files?
         T  Output coherent turbulence time step file?
 0 -  NONE  IEC turbulence models scaled to exact specified standard deviation


Turbine/Model Specifications:

        37  Vertical grid-point matrix dimension
        35  Horizontal grid-point matrix dimension
     0.250  Time step [seconds]
   900.000  Analysis time [seconds]
   900.000  Usable output time [seconds]
    89.350  Hub height [m]
   167.400  Grid height [m]
   158.100  Grid width [m]
     0.000  Vertical flow angle [degrees]
     0.000  Horizontal flow angle [degrees]


Meteorological Boundary Conditions:

    TIMESR  User-input time series spectral model
       N/A  IEC standard
       N/A  IEC turbulence characteristic
       N/A  IEC turbulence type
       N/A  IEC Extreme Turbulence Model (ETM) "c" parameter [m/s]
       PL   Wind profile type
    90.000  Reference height [m]
    10.000  Reference wind speed [m/s]
       N/A  Jet height [m]
     0.120  Power law exponent
     0.030  Surface roughness length [m]


Non-IEC Meteorological Boundary Conditions:

    45.000  Site latitude [degrees]
     0.050  Gradient Richardson number
     0.480  Friction or shear velocity [m/s]
       N/A  Mixing layer depth [m]
       N/A  Mean hub u'w' Reynolds stress
       N/A  Mean hub u'v' Reynolds stress
       N/A  Mean hub v'w' Reynolds stress


Spatial Coherence Models:

       IEC  u-component coherence model
       IEC  v-component coherence model
       IEC  w-component coherence model
(   12.000, 0.353E-03)  u-component coherence parameters
(   12.000, 0.353E-03)  v-component coherence parameters
(   12.000, 0.353E-03)  w-component coherence parameters
       N/A  Coherence exponent


Coherent Turbulence Scaling Parameters:

.\EventData
            Name of the path containing the coherent turbulence data files
       dns  Type of coherent turbulence data files
     1.000  Disturbance scale (ratio of wave height to rotor diameter)
     0.500  Fractional location of tower centerline from right
     0.500  Fractional location of hub height from the bottom of the dataset
    30.000  Minimum start time for coherent structures [seconds]


Profiles from User-Defined Time-Series Input:

  Height   Wind Speed   Horizontal Angle   Vertical Angle
   (m)        (m/s)          (deg)              (deg)    
  ------   ----------   ----------------   --------------
   94.00      10.00          -0.63                0.00


You have requested that the following file(s) be generated:

   /kfs3/scratch/agupta/Projects/RL_Incubator/FinalRuns_Veer/Seed4/./FFSim_Seed4/Cond00_v10.0_PL0.12_TI4.0/Case1_wdirp02/Seed_3/TurbSim/HighT15.bts (AeroDyn/TurbSim full-field wind file)


Turbulence Simulation Scaling Parameter Summary:

   Turbulence model used                            =  User-input time series
   Gradient Richardson number                       =    0.050
   Monin-Obukhov (M-O) z/L parameter                =    0.067
   Monin-Obukhov (M-O) length scale                 = 1340.250 m
   Mean wind speed at hub height                    =    9.991 m/s

   Wind profile type                                =  Power law
   Power law exponent                               =    0.120
   Mean shear across rotor disk                     =    0.019 (m/s)/m
   Assumed rotor diameter                           =  158.100 m
   Surface roughness length                         =    0.030 m

   Nyquist frequency of turbulent wind field        =    2.000 Hz

   Number of time steps in the FFT                  =     3600
   Number of time steps output                      =     3600
   Number of points simulated                       =     1296


Mean Flow Angles:

   Vertical   =   0.0 degrees
   Horizontal =   0.0 degrees

Mean Wind Speed Profile:

   Height    Wind Speed   Horizontal Angle  Vertical Angle  U-comp (X)   V-comp (Y)   W-comp (Z)
     (m)        (m/s)         (degrees)       (degrees)       (m/s)        (m/s)        (m/s)   
   ------    ----------   ----------------  --------------  ----------   ----------   ----------
    168.4       10.78            0.00            0.00         10.78         0.00         0.00
    163.7       10.74            0.00            0.00         10.74         0.00         0.00
    159.1       10.71            0.00            0.00         10.71         0.00         0.00
    154.4       10.67            0.00            0.00         10.67         0.00         0.00
    149.8       10.63            0.00            0.00         10.63         0.00         0.00
    145.1       10.59            0.00            0.00         10.59         0.00         0.00
    140.5       10.55            0.00            0.00         10.55         0.00         0.00
    135.8       10.51            0.00            0.00         10.51         0.00         0.00
    131.2       10.46            0.00            0.00         10.46         0.00         0.00
    126.5       10.42            0.00            0.00         10.42         0.00         0.00
    121.9       10.37            0.00            0.00         10.37         0.00         0.00
    117.2       10.32            0.00            0.00         10.32         0.00         0.00
    112.6       10.27            0.00            0.00         10.27         0.00         0.00
    107.9       10.22            0.00            0.00         10.22         0.00         0.00
    103.3       10.17            0.00            0.00         10.17         0.00         0.00
     98.6       10.11            0.00            0.00         10.11         0.00         0.00
     94.0       10.05            0.00            0.00         10.05         0.00         0.00
     89.3        9.99            0.00            0.00          9.99         0.00         0.00
     84.7        9.93            0.00            0.00          9.93         0.00         0.00
     80.0        9.86            0.00            0.00          9.86         0.00         0.00
     75.4        9.79            0.00            0.00          9.79         0.00         0.00
     70.7        9.72            0.00            0.00          9.72         0.00         0.00
     66.1        9.64            0.00            0.00          9.64         0.00         0.00
     61.4        9.55            0.00            0.00          9.55         0.00         0.00
     56.8        9.46            0.00            0.00          9.46         0.00         0.00
     52.1        9.37            0.00            0.00          9.37         0.00         0.00
     47.5        9.26            0.00            0.00          9.26         0.00         0.00
     42.8        9.15            0.00            0.00          9.15         0.00         0.00
     38.2        9.02            0.00            0.00          9.02         0.00         0.00
     33.5        8.88            0.00            0.00          8.88         0.00         0.00
     28.9        8.73            0.00            0.00          8.73         0.00         0.00
     24.2        8.54            0.00            0.00          8.54         0.00         0.00
     19.6        8.33            0.00            0.00          8.33         0.00         0.00
     14.9        8.06            0.00            0.00          8.06         0.00         0.00
     10.3        7.71            0.00            0.00          7.71         0.00         0.00
      5.6        7.17            0.00            0.00          7.17         0.00         0.00
      1.0        5.83            0.00            0.00          5.83         0.00         0.00


Harvested Random Seeds after Generation of the Random Numbers:

     65026800 K 1
            0 K 2


Hub-Height Simulated Turbulence Statistical Summary:

   Type of Wind        Min (m/s)   Mean (m/s)    Max (m/s)  Sigma (m/s)       TI (%)
   ----------------    ---------   ----------    ---------  -----------       ------
   Longitudinal (u)         9.01         9.99        11.23        0.398        3.980
   Lateral (v)             -0.93         0.00         1.11        0.344        3.445
   Vertical (w)            -0.65         0.00         0.75        0.189        1.895
   U component              9.01         9.99        11.23        0.398        3.980
   V component             -0.93         0.00         1.11        0.344        3.445
   W component             -0.65         0.00         0.75        0.189        1.895
   Horizontal (U&V)         9.03        10.00        11.23        0.397        3.974
   Total                    9.03        10.00        11.24        0.397        3.973

                       Min Reynolds     Mean Reynolds    Max Reynolds    Correlation
   Product             Stress (m/s)^2   Stress (m/s)^2   Stress (m/s)^2  Coefficient
   ----------------    --------------   --------------   --------------  -----------
   u'w'                     -0.488            -0.009             0.458        -0.121
   u'v'                     -0.654            -0.022             0.718        -0.159
   v'w'                     -0.340             0.009             0.384         0.138


   Friction Velocity (Ustar)  =      0.095 m/s
   Maximum Instantaneous TKE  =      0.862 (m/s)^2
   Maximum Instantaneous CTKE =      0.432 (m/s)^2


Grid Point Variance Summary:

   Y-coord  -79.05  -74.40  -69.75  -65.10  -60.45  -55.80  -51.15  -46.50  -41.85  -37.20  -32.55  -27.90  -23.25  -18.60  -13.95   -9.30   -4.65    0.00    4.65    9.30   13.95   18.60   23.25   27.90   32.55   37.20   41.85   46.50   51.15   55.80   60.45   65.10   69.75   74.40   79.05

   Height   Standard deviation at grid points for the u component:
   168.40    0.379   0.382   0.369   0.428   0.424   0.461   0.489   0.490   0.475   0.459   0.479   0.461   0.443   0.437   0.426   0.380   0.418   0.447   0.417   0.401   0.401   0.414   0.445   0.466   0.404   0.406   0.449   0.431   0.418   0.395   0.412   0.408   0.419   0.419   0.462
   163.75    0.385   0.407   0.407   0.408   0.402   0.452   0.453   0.461   0.466   0.494   0.455   0.442   0.443   0.421   0.401   0.390   0.442   0.449   0.419   0.406   0.462   0.447   0.461   0.440   0.405   0.421   0.439   0.437   0.432   0.433   0.428   0.427   0.420   0.422   0.450
   159.10    0.398   0.364   0.375   0.383   0.407   0.437   0.430   0.431   0.466   0.494   0.447   0.428   0.488   0.454   0.440   0.429   0.423   0.442   0.443   0.440   0.467   0.446   0.473   0.464   0.417   0.421   0.453   0.432   0.419   0.411   0.418   0.430   0.389   0.418   0.416
   154.45    0.379   0.363   0.372   0.414   0.412   0.441   0.446   0.454   0.433   0.456   0.417   0.424   0.466   0.473   0.456   0.434   0.408   0.429   0.436   0.440   0.468   0.460   0.473   0.433   0.407   0.419   0.422   0.432   0.417   0.403   0.451   0.457   0.398   0.414   0.399
   149.80    0.383   0.392   0.352   0.383   0.412   0.398   0.434   0.426   0.395   0.420   0.411   0.395   0.430   0.459   0.475   0.454   0.448   0.433   0.427   0.399   0.437   0.455   0.455   0.436   0.422   0.403   0.390   0.415   0.387   0.442   0.468   0.458   0.428   0.430   0.408
   145.15    0.423   0.389   0.383   0.384   0.410   0.433   0.423   0.439   0.433   0.411   0.413   0.418   0.424   0.444   0.459   0.452   0.412   0.457   0.433   0.419   0.447   0.453   0.472   0.451   0.424   0.427   0.402   0.392   0.365   0.428   0.469   0.472   0.423   0.429   0.395
   140.50    0.452   0.427   0.443   0.414   0.417   0.404   0.423   0.438   0.419   0.392   0.361   0.363   0.362   0.398   0.429   0.422   0.421   0.441   0.486   0.472   0.486   0.478   0.483   0.435   0.388   0.419   0.394   0.369   0.366   0.435   0.437   0.453   0.432   0.416   0.394
   135.85    0.486   0.443   0.442   0.435   0.388   0.375   0.405   0.404   0.400   0.391   0.376   0.357   0.360   0.387   0.409   0.405   0.451   0.479   0.478   0.493   0.524   0.525   0.488   0.426   0.405   0.405   0.433   0.414   0.427   0.458   0.503   0.501   0.475   0.437   0.409
   131.20    0.465   0.423   0.432   0.377   0.377   0.390   0.392   0.392   0.403   0.380   0.375   0.360   0.366   0.393   0.412   0.428   0.466   0.435   0.468   0.488   0.476   0.513   0.523   0.470   0.438   0.473   0.441   0.458   0.419   0.454   0.476   0.461   0.449   0.405   0.434
   126.55    0.430   0.405   0.408   0.368   0.361   0.365   0.378   0.390   0.416   0.368   0.342   0.360   0.392   0.389   0.433   0.424   0.437   0.402   0.433   0.491   0.507   0.519   0.523   0.470   0.437   0.469   0.453   0.423   0.443   0.455   0.451   0.466   0.431   0.419   0.472
   121.90    0.433   0.425   0.440   0.382   0.381   0.376   0.370   0.384   0.393   0.350   0.345   0.364   0.374   0.432   0.455   0.431   0.439   0.392   0.429   0.474   0.475   0.497   0.495   0.451   0.462   0.451   0.462   0.459   0.460   0.448   0.448   0.491   0.497   0.452   0.455
   117.25    0.458   0.470   0.441   0.426   0.380   0.384   0.374   0.360   0.372   0.328   0.327   0.351   0.409   0.394   0.452   0.453   0.412   0.433   0.461   0.478   0.484   0.475   0.459   0.464   0.482   0.498   0.438   0.496   0.505   0.479   0.474   0.500   0.492   0.446   0.442
   112.60    0.454   0.440   0.435   0.437   0.408   0.369   0.380   0.366   0.363   0.353   0.370   0.366   0.400   0.426   0.430   0.433   0.419   0.462   0.480   0.521   0.449   0.421   0.460   0.460   0.479   0.472   0.458   0.485   0.485   0.491   0.493   0.498   0.467   0.434   0.448
   107.95    0.440   0.448   0.443   0.425   0.401   0.408   0.383   0.367   0.353   0.362   0.360   0.347   0.386   0.386   0.439   0.397   0.448   0.494   0.511   0.518   0.456   0.452   0.471   0.471   0.480   0.496   0.466   0.476   0.490   0.465   0.477   0.461   0.433   0.417   0.429
   103.30    0.413   0.423   0.386   0.422   0.394   0.380   0.355   0.359   0.339   0.344   0.349   0.367   0.348   0.388   0.369   0.385   0.444   0.474   0.510   0.498   0.466   0.458   0.437   0.460   0.474   0.477   0.481   0.466   0.458   0.479   0.439   0.473   0.433   0.412   0.463
    98.65    0.428   0.390   0.406   0.416   0.386   0.361   0.384   0.350   0.353   0.355   0.345   0.350   0.326   0.336   0.391   0.442   0.422   0.436   0.490   0.485   0.480   0.463   0.455   0.442   0.436   0.456   0.464   0.443   0.458   0.453   0.438   0.458   0.480   0.428   0.466
    94.00    0.431   0.434   0.439   0.430   0.399   0.360   0.392   0.375   0.346   0.363   0.359   0.367   0.329   0.342   0.371   0.415   0.406   0.440   0.438   0.467   0.474   0.509   0.471   0.431   0.441   0.442   0.454   0.472   0.471   0.447   0.450   0.405   0.465   0.472   0.466
    89.35    0.466   0.442   0.447   0.418   0.418   0.390   0.396   0.382   0.365   0.355   0.356   0.367   0.343   0.361   0.360   0.403   0.388   0.398   0.415   0.423   0.480   0.514   0.466   0.424   0.429   0.432   0.442   0.453   0.444   0.487   0.436   0.430   0.443   0.485   0.504
    84.70    0.461   0.432   0.418   0.412   0.381   0.400   0.411   0.399   0.376   0.351   0.347   0.344   0.328   0.349   0.381   0.378   0.363   0.366   0.394   0.425   0.450   0.490   0.457   0.430   0.425   0.423   0.449   0.469   0.426   0.484   0.460   0.438   0.477   0.487   0.507
    80.05    0.441   0.423   0.403   0.411   0.399   0.407   0.391   0.390   0.375   0.356   0.351   0.314   0.322   0.345   0.371   0.354   0.350   0.386   0.406   0.382   0.420   0.457   0.460   0.447   0.429   0.430   0.448   0.461   0.455   0.497   0.493   0.481   0.463   0.496   0.499
    75.40    0.432   0.404   0.433   0.415   0.415   0.423   0.403   0.388   0.393   0.354   0.348   0.331   0.303   0.329   0.365   0.326   0.360   0.392   0.429   0.414   0.402   0.431   0.454   0.405   0.410   0.458   0.452   0.469   0.450   0.458   0.488   0.492   0.501   0.489   0.474
    70.75    0.414   0.398   0.420   0.464   0.457   0.394   0.394   0.353   0.368   0.362   0.343   0.318   0.324   0.333   0.349   0.353   0.327   0.381   0.415   0.428   0.403   0.420   0.467   0.415   0.438   0.464   0.468   0.434   0.427   0.439   0.466   0.479   0.492   0.450   0.468
    66.10    0.402   0.429   0.453   0.450   0.465   0.438   0.401   0.385   0.359   0.336   0.325   0.328   0.349   0.355   0.373   0.343   0.357   0.357   0.415   0.441   0.465   0.458   0.473   0.436   0.429   0.461   0.441   0.418   0.425   0.432   0.421   0.462   0.476   0.463   0.455
    61.45    0.425   0.424   0.467   0.462   0.439   0.443   0.398   0.370   0.336   0.325   0.319   0.326   0.339   0.365   0.374   0.397   0.359   0.418   0.422   0.475   0.466   0.463   0.462   0.499   0.455   0.477   0.447   0.436   0.385   0.427   0.426   0.443   0.489   0.455   0.417
    56.80    0.457   0.430   0.470   0.496   0.454   0.439   0.364   0.338   0.360   0.330   0.336   0.344   0.339   0.353   0.388   0.405   0.395   0.381   0.423   0.454   0.460   0.512   0.478   0.513   0.483   0.477   0.479   0.470   0.453   0.399   0.388   0.446   0.486   0.439   0.403
    52.15    0.454   0.424   0.454   0.471   0.439   0.432   0.387   0.386   0.357   0.352   0.328   0.333   0.341   0.373   0.385   0.378   0.420   0.396   0.438   0.475   0.470   0.513   0.495   0.504   0.456   0.485   0.444   0.466   0.438   0.442   0.403   0.433   0.448   0.430   0.422
    47.50    0.433   0.403   0.432   0.451   0.422   0.419   0.443   0.414   0.413   0.349   0.325   0.341   0.347   0.364   0.363   0.360   0.400   0.412   0.463   0.445   0.455   0.470   0.474   0.457   0.455   0.446   0.427   0.431   0.406   0.402   0.415   0.438   0.411   0.428   0.456
    42.85    0.501   0.453   0.480   0.483   0.455   0.420   0.448   0.452   0.413   0.395   0.362   0.350   0.328   0.330   0.389   0.394   0.428   0.445   0.439   0.458   0.449   0.443   0.449   0.464   0.418   0.415   0.352   0.392   0.412   0.401   0.404   0.402   0.399   0.415   0.421
    38.20    0.497   0.473   0.481   0.470   0.494   0.486   0.481   0.454   0.458   0.433   0.403   0.389   0.367   0.361   0.377   0.411   0.445   0.426   0.471   0.427   0.465   0.440   0.438   0.449   0.419   0.374   0.373   0.403   0.423   0.397   0.403   0.368   0.396   0.408   0.380
    33.55    0.522   0.498   0.503   0.469   0.510   0.491   0.516   0.498   0.449   0.470   0.438   0.413   0.418   0.412   0.422   0.406   0.451   0.465   0.467   0.457   0.466   0.449   0.434   0.458   0.411   0.407   0.431   0.399   0.440   0.441   0.421   0.387   0.393   0.395   0.403
    28.90    0.520   0.461   0.464   0.481   0.493   0.499   0.524   0.523   0.479   0.481   0.437   0.431   0.451   0.467   0.406   0.405   0.447   0.452   0.489   0.481   0.433   0.450   0.465   0.475   0.461   0.452   0.483   0.445   0.464   0.447   0.429   0.417   0.367   0.370   0.378
    24.25    0.528   0.483   0.481   0.467   0.542   0.487   0.504   0.525   0.490   0.492   0.458   0.489   0.458   0.459   0.415   0.411   0.412   0.455   0.500   0.492   0.460   0.453   0.466   0.485   0.482   0.502   0.482   0.503   0.490   0.463   0.415   0.389   0.369   0.371   0.393
    19.60    0.516   0.470   0.494   0.532   0.518   0.500   0.514   0.493   0.517   0.510   0.514   0.491   0.462   0.445   0.433   0.415   0.436   0.463   0.484   0.472   0.479   0.506   0.514   0.498   0.508   0.524   0.502   0.501   0.507   0.451   0.392   0.396   0.382   0.383   0.425
    14.95    0.516   0.481   0.500   0.483   0.508   0.517   0.486   0.507   0.510   0.498   0.527   0.525   0.499   0.462   0.434   0.407   0.400   0.433   0.452   0.453   0.503   0.526   0.518   0.461   0.477   0.495   0.524   0.510   0.533   0.469   0.416   0.390   0.403   0.399   0.413
    10.30    0.520   0.480   0.477   0.460   0.506   0.510   0.517   0.509   0.506   0.475   0.526   0.503   0.463   0.445   0.437   0.402   0.423   0.429   0.450   0.461   0.502   0.515   0.478   0.493   0.474   0.495   0.511   0.518   0.493   0.484   0.412   0.395   0.395   0.422   0.446
     5.65    0.509   0.477   0.442   0.449   0.457   0.458   0.474   0.462   0.474   0.472   0.490   0.483   0.468   0.426   0.415   0.427   0.403   0.458   0.466   0.467   0.463   0.499   0.458   0.471   0.503   0.478   0.489   0.496   0.479   0.451   0.421   0.407   0.401   0.429   0.454
     1.00    0.464   0.484   0.439   0.434   0.422   0.456   0.460   0.444   0.458   0.450   0.471   0.491   0.456   0.443   0.401   0.402   0.388   0.429   0.433   0.407   0.450   0.483   0.429   0.450   0.488   0.477   0.476   0.450   0.418   0.424   0.415   0.421   0.414   0.427   0.410

   Height   Standard deviation at grid points for the v component:
   168.40    0.314   0.321   0.321   0.337   0.337   0.336   0.352   0.357   0.358   0.370   0.353   0.336   0.337   0.334   0.337   0.330   0.330   0.325   0.335   0.351   0.344   0.325   0.319   0.305   0.320   0.315   0.323   0.321   0.323   0.341   0.333   0.346   0.333   0.337   0.350
   163.75    0.321   0.290   0.310   0.320   0.329   0.338   0.341   0.358   0.356   0.351   0.345   0.358   0.354   0.332   0.335   0.345   0.352   0.331   0.344   0.347   0.346   0.331   0.306   0.305   0.306   0.326   0.333   0.334   0.338   0.346   0.332   0.335   0.335   0.343   0.350
   159.10    0.329   0.316   0.322   0.324   0.330   0.345   0.343   0.353   0.355   0.350   0.352   0.342   0.346   0.341   0.332   0.340   0.350   0.349   0.328   0.327   0.340   0.328   0.320   0.324   0.317   0.309   0.338   0.340   0.340   0.350   0.331   0.330   0.331   0.329   0.329
   154.45    0.335   0.331   0.345   0.333   0.341   0.334   0.360   0.364   0.352   0.341   0.343   0.350   0.351   0.352   0.357   0.353   0.349   0.340   0.353   0.337   0.326   0.327   0.327   0.326   0.312   0.321   0.326   0.327   0.331   0.336   0.329   0.332   0.335   0.327   0.335
   149.80    0.345   0.348   0.331   0.350   0.349   0.351   0.346   0.358   0.366   0.345   0.327   0.346   0.352   0.365   0.359   0.363   0.357   0.359   0.346   0.352   0.339   0.324   0.322   0.319   0.326   0.323   0.300   0.305   0.307   0.302   0.314   0.319   0.330   0.334   0.324
   145.15    0.356   0.347   0.335   0.346   0.364   0.355   0.358   0.342   0.368   0.342   0.329   0.340   0.343   0.354   0.342   0.359   0.357   0.356   0.350   0.336   0.323   0.304   0.307   0.307   0.316   0.313   0.311   0.315   0.312   0.307   0.305   0.314   0.320   0.332   0.308
   140.50    0.371   0.356   0.366   0.379   0.362   0.339   0.334   0.336   0.367   0.358   0.331   0.335   0.341   0.346   0.356   0.358   0.362   0.349   0.323   0.330   0.317   0.293   0.291   0.300   0.310   0.295   0.318   0.322   0.301   0.309   0.305   0.305   0.305   0.330   0.310
   135.85    0.368   0.374   0.376   0.376   0.357   0.341   0.341   0.340   0.354   0.354   0.353   0.355   0.354   0.354   0.351   0.334   0.336   0.321   0.319   0.319   0.302   0.298   0.294   0.297   0.310   0.305   0.321   0.314   0.304   0.299   0.294   0.305   0.304   0.293   0.302
   131.20    0.353   0.377   0.375   0.384   0.356   0.335   0.359   0.343   0.341   0.347   0.341   0.347   0.350   0.355   0.339   0.333   0.320   0.305   0.311   0.307   0.315   0.313   0.295   0.291   0.309   0.301   0.319   0.322   0.296   0.299   0.297   0.306   0.293   0.283   0.308
   126.55    0.371   0.378   0.365   0.382   0.373   0.349   0.347   0.339   0.321   0.341   0.335   0.346   0.360   0.344   0.341   0.310   0.299   0.298   0.306   0.303   0.302   0.316   0.305   0.306   0.312   0.310   0.331   0.335   0.323   0.321   0.300   0.293   0.298   0.305   0.317
   121.90    0.375   0.354   0.362   0.384   0.361   0.356   0.352   0.349   0.324   0.326   0.352   0.354   0.365   0.347   0.354   0.323   0.309   0.318   0.311   0.305   0.306   0.304   0.301   0.312   0.304   0.303   0.313   0.312   0.328   0.334   0.306   0.300   0.311   0.319   0.327
   117.25    0.370   0.367   0.368   0.376   0.361   0.352   0.344   0.358   0.337   0.337   0.371   0.363   0.368   0.358   0.346   0.339   0.317   0.304   0.307   0.302   0.302   0.306   0.312   0.316   0.312   0.304   0.315   0.304   0.320   0.316   0.312   0.310   0.329   0.316   0.316
   112.60    0.377   0.363   0.365   0.391   0.368   0.342   0.345   0.338   0.343   0.358   0.370   0.362   0.366   0.361   0.352   0.334   0.314   0.321   0.317   0.327   0.325   0.311   0.306   0.306   0.309   0.305   0.322   0.324   0.329   0.332   0.322   0.316   0.330   0.325   0.333
   107.95    0.386   0.372   0.379   0.385   0.375   0.373   0.357   0.333   0.343   0.362   0.371   0.376   0.371   0.343   0.344   0.332   0.312   0.333   0.331   0.323   0.326   0.319   0.293   0.299   0.311   0.308   0.328   0.345   0.338   0.335   0.323   0.322   0.344   0.358   0.361
   103.30    0.387   0.386   0.379   0.386   0.381   0.386   0.379   0.363   0.348   0.355   0.351   0.365   0.358   0.340   0.330   0.333   0.299   0.323   0.328   0.332   0.323   0.309   0.294   0.294   0.290   0.307   0.337   0.334   0.341   0.338   0.335   0.347   0.339   0.357   0.347
    98.65    0.406   0.405   0.411   0.426   0.388   0.390   0.368   0.353   0.331   0.344   0.352   0.363   0.361   0.355   0.356   0.322   0.316   0.326   0.346   0.334   0.320   0.292   0.279   0.296   0.295   0.312   0.323   0.335   0.353   0.336   0.332   0.336   0.346   0.348   0.347
    94.00    0.414   0.408   0.400   0.402   0.397   0.395   0.388   0.373   0.355   0.351   0.353   0.353   0.374   0.350   0.350   0.338   0.335   0.344   0.347   0.351   0.322   0.316   0.301   0.298   0.304   0.309   0.309   0.351   0.351   0.330   0.342   0.335   0.341   0.349   0.347
    89.35    0.382   0.402   0.391   0.378   0.385   0.375   0.381   0.371   0.359   0.354   0.341   0.335   0.364   0.373   0.352   0.348   0.352   0.344   0.353   0.336   0.337   0.349   0.322   0.317   0.305   0.324   0.318   0.348   0.346   0.333   0.343   0.348   0.354   0.345   0.346
    84.70    0.367   0.389   0.370   0.358   0.375   0.367   0.387   0.378   0.383   0.343   0.357   0.347   0.348   0.367   0.356   0.348   0.337   0.366   0.350   0.346   0.343   0.344   0.339   0.325   0.327   0.329   0.331   0.344   0.343   0.344   0.340   0.354   0.347   0.340   0.349
    80.05    0.379   0.376   0.351   0.356   0.343   0.343   0.363   0.367   0.375   0.366   0.332   0.334   0.353   0.370   0.367   0.350   0.339   0.354   0.350   0.345   0.342   0.342   0.320   0.326   0.321   0.332   0.335   0.354   0.351   0.350   0.360   0.366   0.351   0.366   0.375
    75.40    0.380   0.382   0.372   0.379   0.347   0.335   0.360   0.380   0.369   0.374   0.341   0.338   0.347   0.347   0.341   0.345   0.343   0.337   0.352   0.353   0.348   0.334   0.319   0.324   0.322   0.305   0.327   0.335   0.352   0.370   0.369   0.375   0.353   0.359   0.361
    70.75    0.373   0.373   0.363   0.356   0.364   0.351   0.369   0.375   0.386   0.359   0.345   0.348   0.344   0.358   0.351   0.346   0.338   0.334   0.344   0.338   0.343   0.325   0.317   0.324   0.336   0.307   0.326   0.326   0.356   0.357   0.372   0.371   0.361   0.367   0.367
    66.10    0.372   0.351   0.352   0.363   0.354   0.366   0.364   0.389   0.380   0.357   0.349   0.342   0.356   0.341   0.349   0.345   0.344   0.336   0.342   0.342   0.353   0.329   0.321   0.333   0.326   0.335   0.338   0.340   0.350   0.348   0.334   0.346   0.351   0.350   0.353
    61.45    0.361   0.356   0.358   0.337   0.338   0.353   0.368   0.378   0.384   0.366   0.362   0.356   0.358   0.349   0.362   0.342   0.342   0.333   0.341   0.352   0.335   0.346   0.329   0.318   0.320   0.324   0.334   0.332   0.355   0.342   0.330   0.345   0.338   0.333   0.336
    56.80    0.362   0.365   0.352   0.342   0.335   0.339   0.361   0.358   0.365   0.372   0.364   0.364   0.368   0.373   0.359   0.344   0.333   0.336   0.333   0.344   0.340   0.341   0.322   0.326   0.334   0.334   0.328   0.342   0.340   0.327   0.316   0.327   0.340   0.338   0.338
    52.15    0.348   0.340   0.346   0.343   0.353   0.345   0.342   0.338   0.363   0.363   0.369   0.351   0.374   0.356   0.366   0.352   0.337   0.330   0.329   0.336   0.332   0.322   0.324   0.328   0.337   0.336   0.332   0.327   0.329   0.308   0.317   0.337   0.340   0.344   0.327
    47.50    0.360   0.337   0.335   0.347   0.358   0.357   0.357   0.348   0.356   0.350   0.378   0.369   0.385   0.372   0.346   0.349   0.341   0.340   0.336   0.338   0.341   0.327   0.335   0.337   0.337   0.329   0.347   0.331   0.317   0.321   0.334   0.316   0.320   0.328   0.333
    42.85    0.354   0.357   0.358   0.382   0.363   0.367   0.372   0.370   0.387   0.372   0.375   0.380   0.398   0.406   0.362   0.342   0.362   0.355   0.355   0.359   0.353   0.317   0.349   0.327   0.319   0.324   0.335   0.333   0.334   0.328   0.334   0.328   0.322   0.330   0.320
    38.20    0.369   0.355   0.357   0.374   0.364   0.366   0.365   0.372   0.382   0.381   0.383   0.380   0.384   0.384   0.370   0.343   0.348   0.361   0.369   0.358   0.351   0.321   0.322   0.326   0.307   0.312   0.312   0.332   0.329   0.332   0.334   0.333   0.331   0.329   0.335
    33.55    0.375   0.350   0.360   0.363   0.349   0.349   0.354   0.348   0.378   0.369   0.397   0.385   0.401   0.388   0.372   0.351   0.375   0.373   0.361   0.357   0.351   0.320   0.311   0.310   0.299   0.299   0.323   0.327   0.313   0.319   0.335   0.334   0.331   0.332   0.334
    28.90    0.360   0.355   0.363   0.358   0.344   0.355   0.337   0.346   0.371   0.372   0.391   0.404   0.407   0.412   0.395   0.378   0.395   0.395   0.375   0.360   0.353   0.330   0.310   0.308   0.305   0.305   0.328   0.338   0.317   0.318   0.320   0.323   0.328   0.336   0.343
    24.25    0.353   0.368   0.352   0.347   0.367   0.377   0.367   0.370   0.375   0.384   0.388   0.381   0.410   0.415   0.397   0.406   0.398   0.399   0.387   0.349   0.327   0.324   0.334   0.322   0.304   0.315   0.311   0.319   0.322   0.332   0.320   0.328   0.335   0.333   0.355
    19.60    0.354   0.361   0.359   0.341   0.352   0.359   0.367   0.371   0.379   0.365   0.385   0.394   0.410   0.411   0.403   0.399   0.400   0.391   0.362   0.342   0.331   0.320   0.325   0.314   0.308   0.293   0.319   0.318   0.330   0.333   0.331   0.339   0.340   0.332   0.343
    14.95    0.359   0.357   0.351   0.350   0.353   0.382   0.380   0.378   0.382   0.373   0.386   0.390   0.402   0.398   0.389   0.395   0.399   0.379   0.357   0.335   0.340   0.305   0.298   0.280   0.277   0.291   0.302   0.320   0.328   0.336   0.337   0.331   0.332   0.332   0.339
    10.30    0.355   0.352   0.361   0.360   0.369   0.364   0.381   0.383   0.408   0.384   0.365   0.382   0.396   0.386   0.375   0.376   0.398   0.375   0.347   0.331   0.338   0.311   0.295   0.301   0.290   0.280   0.285   0.319   0.317   0.324   0.318   0.316   0.342   0.329   0.332
     5.65    0.350   0.356   0.341   0.342   0.350   0.360   0.372   0.381   0.385   0.379   0.386   0.383   0.386   0.374   0.375   0.371   0.383   0.373   0.361   0.333   0.317   0.321   0.318   0.321   0.303   0.293   0.296   0.310   0.310   0.316   0.323   0.342   0.340   0.342   0.346
     1.00    0.352   0.337   0.341   0.337   0.338   0.350   0.348   0.358   0.371   0.383   0.375   0.389   0.373   0.390   0.368   0.364   0.348   0.369   0.348   0.347   0.328   0.316   0.325   0.335   0.314   0.303   0.316   0.311   0.328   0.333   0.329   0.337   0.337   0.354   0.346

   Height   Standard deviation at grid points for the w component:
   168.40    0.191   0.192   0.190   0.193   0.189   0.201   0.202   0.199   0.202   0.192   0.187   0.195   0.182   0.181   0.184   0.186   0.190   0.194   0.199   0.198   0.198   0.190   0.196   0.197   0.191   0.197   0.193   0.191   0.185   0.179   0.180   0.180   0.184   0.187   0.184
   163.75    0.189   0.190   0.182   0.186   0.191   0.199   0.195   0.190   0.188   0.190   0.182   0.188   0.184   0.182   0.184   0.192   0.201   0.195   0.192   0.193   0.190   0.190   0.191   0.198   0.196   0.194   0.191   0.186   0.181   0.175   0.184   0.187   0.186   0.189   0.190
   159.10    0.190   0.188   0.181   0.188   0.193   0.193   0.194   0.192   0.185   0.182   0.183   0.194   0.189   0.191   0.191   0.197   0.197   0.191   0.195   0.196   0.203   0.193   0.191   0.195   0.197   0.198   0.196   0.191   0.189   0.181   0.182   0.184   0.188   0.188   0.189
   154.45    0.186   0.185   0.179   0.185   0.194   0.195   0.192   0.188   0.184   0.180   0.183   0.193   0.196   0.190   0.196   0.199   0.195   0.190   0.207   0.208   0.208   0.201   0.197   0.192   0.197   0.195   0.196   0.186   0.184   0.186   0.181   0.181   0.183   0.184   0.195
   149.80    0.191   0.186   0.188   0.190   0.190   0.192   0.188   0.189   0.190   0.185   0.187   0.195   0.193   0.195   0.198   0.192   0.193   0.196   0.199   0.214   0.218   0.208   0.208   0.203   0.198   0.193   0.189   0.186   0.180   0.192   0.188   0.183   0.187   0.187   0.193
   145.15    0.192   0.185   0.190   0.194   0.194   0.185   0.176   0.186   0.186   0.188   0.190   0.189   0.194   0.194   0.189   0.200   0.197   0.201   0.203   0.218   0.221   0.219   0.212   0.206   0.196   0.186   0.185   0.181   0.185   0.192   0.192   0.186   0.188   0.187   0.197
   140.50    0.192   0.187   0.193   0.195   0.186   0.180   0.181   0.182   0.189   0.194   0.190   0.190   0.186   0.191   0.197   0.199   0.204   0.203   0.199   0.210   0.210   0.210   0.201   0.206   0.193   0.197   0.185   0.183   0.184   0.186   0.191   0.189   0.189   0.187   0.191
   135.85    0.188   0.189   0.188   0.192   0.187   0.191   0.183   0.184   0.193   0.198   0.193   0.196   0.192   0.193   0.190   0.197   0.200   0.196   0.203   0.207   0.208   0.209   0.213   0.203   0.198   0.196   0.186   0.192   0.186   0.180   0.185   0.180   0.186   0.185   0.186
   131.20    0.186   0.189   0.198   0.198   0.196   0.189   0.189   0.189   0.193   0.194   0.194   0.188   0.195   0.196   0.193   0.194   0.201   0.193   0.194   0.204   0.204   0.203   0.203   0.206   0.204   0.192   0.189   0.182   0.182   0.185   0.190   0.188   0.185   0.188   0.188
   126.55    0.187   0.186   0.188   0.191   0.188   0.185   0.182   0.186   0.186   0.188   0.193   0.187   0.200   0.199   0.197   0.198   0.203   0.195   0.197   0.197   0.201   0.192   0.197   0.194   0.193   0.195   0.193   0.181   0.185   0.183   0.183   0.181   0.182   0.184   0.187
   121.90    0.184   0.184   0.185   0.185   0.189   0.184   0.188   0.185   0.193   0.192   0.197   0.201   0.200   0.196   0.197   0.204   0.211   0.203   0.198   0.195   0.191   0.198   0.194   0.191   0.188   0.186   0.189   0.190   0.186   0.186   0.186   0.181   0.181   0.190   0.183
   117.25    0.184   0.187   0.183   0.184   0.186   0.188   0.191   0.187   0.198   0.198   0.195   0.195   0.197   0.199   0.199   0.200   0.203   0.194   0.191   0.192   0.201   0.201   0.193   0.184   0.192   0.188   0.184   0.189   0.196   0.190   0.180   0.181   0.185   0.180   0.180
   112.60    0.182   0.187   0.190   0.187   0.189   0.178   0.190   0.194   0.199   0.197   0.194   0.203   0.198   0.200   0.199   0.199   0.205   0.196   0.189   0.188   0.199   0.196   0.193   0.189   0.193   0.187   0.183   0.191   0.192   0.192   0.190   0.183   0.186   0.185   0.184
   107.95    0.192   0.191   0.198   0.196   0.190   0.193   0.189   0.203   0.202   0.192   0.197   0.201   0.192   0.195   0.193   0.197   0.203   0.202   0.193   0.194   0.196   0.194   0.189   0.187   0.187   0.194   0.191   0.184   0.189   0.194   0.192   0.187   0.189   0.185   0.184
   103.30    0.192   0.192   0.194   0.196   0.191   0.195   0.194   0.202   0.203   0.193   0.192   0.193   0.192   0.187   0.192   0.192   0.197   0.193   0.188   0.190   0.195   0.187   0.193   0.189   0.187   0.183   0.184   0.189   0.192   0.188   0.192   0.190   0.193   0.195   0.182
    98.65    0.189   0.186   0.192   0.192   0.188   0.196   0.195   0.198   0.195   0.196   0.198   0.193   0.191   0.190   0.191   0.186   0.195   0.195   0.192   0.189   0.188   0.186   0.185   0.186   0.188   0.181   0.177   0.180   0.183   0.188   0.189   0.186   0.194   0.192   0.191
    94.00    0.187   0.185   0.191   0.192   0.194   0.197   0.196   0.198   0.193   0.199   0.195   0.191   0.187   0.186   0.193   0.194   0.193   0.189   0.189   0.193   0.192   0.186   0.185   0.188   0.186   0.182   0.180   0.176   0.187   0.186   0.188   0.187   0.182   0.185   0.178
    89.35    0.192   0.194   0.194   0.187   0.190   0.184   0.184   0.196   0.192   0.192   0.194   0.194   0.196   0.191   0.188   0.184   0.192   0.189   0.190   0.193   0.195   0.192   0.194   0.185   0.175   0.177   0.181   0.178   0.183   0.179   0.184   0.196   0.187   0.178   0.185
    84.70    0.195   0.196   0.196   0.193   0.193   0.194   0.189   0.199   0.191   0.193   0.198   0.192   0.191   0.193   0.188   0.191   0.192   0.187   0.193   0.194   0.191   0.191   0.192   0.196   0.182   0.189   0.179   0.178   0.177   0.183   0.187   0.188   0.184   0.183   0.183
    80.05    0.190   0.192   0.188   0.193   0.193   0.200   0.192   0.191   0.190   0.193   0.199   0.194   0.193   0.190   0.187   0.190   0.193   0.195   0.193   0.196   0.185   0.188   0.192   0.193   0.185   0.189   0.182   0.177   0.181   0.183   0.180   0.190   0.189   0.184   0.183
    75.40    0.195   0.186   0.187   0.196   0.197   0.207   0.204   0.195   0.192   0.193   0.196   0.186   0.195   0.201   0.198   0.197   0.198   0.194   0.189   0.186   0.187   0.187   0.192   0.191   0.186   0.180   0.189   0.184   0.178   0.184   0.181   0.182   0.185   0.187   0.181
    70.75    0.195   0.199   0.195   0.199   0.195   0.201   0.200   0.191   0.195   0.195   0.192   0.193   0.189   0.188   0.198   0.198   0.191   0.192   0.198   0.196   0.182   0.182   0.189   0.188   0.192   0.187   0.186   0.186   0.179   0.185   0.183   0.175   0.182   0.190   0.174
    66.10    0.194   0.195   0.196   0.199   0.200   0.198   0.196   0.194   0.189   0.193   0.185   0.193   0.191   0.191   0.196   0.194   0.198   0.199   0.196   0.199   0.196   0.195   0.187   0.185   0.189   0.187   0.188   0.188   0.194   0.194   0.190   0.187   0.185   0.186   0.186
    61.45    0.205   0.200   0.194   0.204   0.202   0.204   0.201   0.203   0.198   0.194   0.186   0.188   0.187   0.193   0.195   0.198   0.198   0.197   0.196   0.201   0.193   0.188   0.189   0.186   0.179   0.182   0.190   0.192   0.193   0.199   0.201   0.194   0.184   0.188   0.183
    56.80    0.199   0.194   0.198   0.208   0.205   0.199   0.198   0.198   0.198   0.190   0.191   0.186   0.196   0.199   0.191   0.193   0.189   0.189   0.195   0.193   0.185   0.187   0.182   0.180   0.179   0.187   0.188   0.195   0.196   0.205   0.205   0.195   0.184   0.185   0.186
    52.15    0.201   0.206   0.207   0.203   0.204   0.207   0.207   0.199   0.196   0.198   0.195   0.196   0.200   0.202   0.198   0.194   0.190   0.194   0.195   0.193   0.188   0.187   0.178   0.179   0.181   0.194   0.193   0.201   0.196   0.197   0.202   0.186   0.189   0.183   0.185
    47.50    0.208   0.204   0.202   0.196   0.190   0.200   0.197   0.203   0.201   0.203   0.195   0.199   0.206   0.203   0.198   0.192   0.188   0.190   0.193   0.194   0.190   0.187   0.182   0.179   0.187   0.193   0.196   0.195   0.193   0.198   0.196   0.190   0.188   0.192   0.190
    42.85    0.202   0.196   0.194   0.189   0.197   0.190   0.192   0.197   0.198   0.198   0.202   0.200   0.200   0.194   0.184   0.186   0.188   0.189   0.190   0.197   0.192   0.189   0.180   0.186   0.190   0.189   0.189   0.194   0.186   0.189   0.195   0.186   0.193   0.186   0.188
    38.20    0.208   0.203   0.190   0.192   0.192   0.185   0.192   0.200   0.195   0.194   0.198   0.201   0.193   0.194   0.185   0.188   0.191   0.185   0.191   0.192   0.195   0.191   0.192   0.188   0.187   0.194   0.187   0.187   0.184   0.187   0.189   0.193   0.187   0.188   0.190
    33.55    0.201   0.205   0.198   0.192   0.183   0.184   0.195   0.201   0.195   0.187   0.200   0.199   0.198   0.192   0.192   0.190   0.196   0.192   0.189   0.191   0.199   0.189   0.189   0.187   0.182   0.188   0.183   0.188   0.182   0.182   0.186   0.192   0.188   0.187   0.187
    28.90    0.206   0.207   0.207   0.198   0.182   0.183   0.192   0.188   0.190   0.194   0.197   0.210   0.209   0.200   0.195   0.195   0.189   0.184   0.188   0.191   0.189   0.195   0.189   0.192   0.187   0.187   0.192   0.188   0.190   0.182   0.187   0.188   0.188   0.181   0.186
    24.25    0.203   0.206   0.198   0.194   0.193   0.185   0.193   0.194   0.197   0.200   0.198   0.198   0.204   0.200   0.197   0.198   0.182   0.173   0.188   0.190   0.192   0.191   0.189   0.197   0.186   0.188   0.186   0.187   0.183   0.184   0.184   0.192   0.182   0.183   0.182
    19.60    0.199   0.204   0.199   0.195   0.199   0.192   0.193   0.193   0.193   0.193   0.192   0.193   0.196   0.194   0.190   0.183   0.184   0.184   0.182   0.189   0.191   0.188   0.190   0.189   0.183   0.187   0.188   0.190   0.188   0.183   0.190   0.187   0.187   0.186   0.184
    14.95    0.204   0.203   0.198   0.204   0.202   0.195   0.194   0.194   0.192   0.185   0.190   0.194   0.192   0.187   0.192   0.187   0.182   0.186   0.187   0.183   0.195   0.187   0.187   0.180   0.187   0.186   0.187   0.194   0.190   0.187   0.184   0.185   0.183   0.193   0.192
    10.30    0.204   0.203   0.197   0.193   0.196   0.199   0.196   0.190   0.187   0.180   0.188   0.188   0.185   0.186   0.187   0.187   0.186   0.189   0.188   0.184   0.184   0.187   0.183   0.177   0.178   0.186   0.190   0.192   0.188   0.184   0.175   0.182   0.189   0.184   0.196
     5.65    0.200   0.195   0.194   0.192   0.196   0.199   0.197   0.186   0.182   0.191   0.189   0.185   0.185   0.179   0.184   0.183   0.195   0.193   0.186   0.183   0.185   0.183   0.182   0.175   0.179   0.185   0.185   0.183   0.182   0.174   0.171   0.176   0.181   0.183   0.185
     1.00    0.190   0.195   0.190   0.193   0.199   0.195   0.192   0.185   0.182   0.186   0.192   0.186   0.186   0.189   0.184   0.191   0.194   0.189   0.194   0.190   0.189   0.185   0.178   0.179   0.179   0.184   0.182   0.181   0.177   0.178   0.173   0.180   0.185   0.184   0.185

   Mean standard deviation across all grid points:
      u component:    0.432 m/s
      v component:    0.343 m/s
      w component:    0.191 m/s


U-component (X) statistics from the interpolated hub point:

   Mean =   9.9913 m/s
   TI   =   3.9802 %


Processing complete.  5590.7 CPU seconds used.
