
This summary file was generated by TurbSim (from OpenFAST-v3.5.3) on 20-Apr-2025 at 06:08:14.


Runtime Options:

1682697194  Random seed #1
    RANLUX  Type of random number generator
         F  Output binary HH turbulence parameters?
         F  Output formatted turbulence parameters?
         F  Output AeroDyn HH files?
         T  Output AeroDyn FF files?
         F  Output BLADED FF files?
         F  Output tower data?
         F  Output HAWC FF files?
         F  Output formatted FF files?
         T  Output coherent turbulence time step file?
 0 -  NONE  IEC turbulence models scaled to exact specified standard deviation


Turbine/Model Specifications:

        37  Vertical grid-point matrix dimension
        35  Horizontal grid-point matrix dimension
     0.250  Time step [seconds]
   900.000  Analysis time [seconds]
   900.000  Usable output time [seconds]
    89.350  Hub height [m]
   167.400  Grid height [m]
   158.100  Grid width [m]
     0.000  Vertical flow angle [degrees]
     0.000  Horizontal flow angle [degrees]


Meteorological Boundary Conditions:

    TIMESR  User-input time series spectral model
       N/A  IEC standard
       N/A  IEC turbulence characteristic
       N/A  IEC turbulence type
       N/A  IEC Extreme Turbulence Model (ETM) "c" parameter [m/s]
       PL   Wind profile type
    90.000  Reference height [m]
    10.000  Reference wind speed [m/s]
       N/A  Jet height [m]
     0.120  Power law exponent
     0.030  Surface roughness length [m]


Non-IEC Meteorological Boundary Conditions:

    45.000  Site latitude [degrees]
     0.050  Gradient Richardson number
     0.480  Friction or shear velocity [m/s]
       N/A  Mixing layer depth [m]
       N/A  Mean hub u'w' Reynolds stress
       N/A  Mean hub u'v' Reynolds stress
       N/A  Mean hub v'w' Reynolds stress


Spatial Coherence Models:

       IEC  u-component coherence model
       IEC  v-component coherence model
       IEC  w-component coherence model
(   12.000, 0.353E-03)  u-component coherence parameters
(   12.000, 0.353E-03)  v-component coherence parameters
(   12.000, 0.353E-03)  w-component coherence parameters
       N/A  Coherence exponent


Coherent Turbulence Scaling Parameters:

.\EventData
            Name of the path containing the coherent turbulence data files
       les  Type of coherent turbulence data files
     0.500  Disturbance scale (ratio of wave height to rotor diameter)
     0.500  Fractional location of tower centerline from right
     0.000  Fractional location of hub height from the bottom of the dataset
    30.000  Minimum start time for coherent structures [seconds]


Profiles from User-Defined Time-Series Input:

  Height   Wind Speed   Horizontal Angle   Vertical Angle
   (m)        (m/s)          (deg)              (deg)    
  ------   ----------   ----------------   --------------
   94.00      10.00          -0.63                0.00


You have requested that the following file(s) be generated:

   /kfs3/scratch/agupta/Projects/RL_Incubator/FinalRuns_Veer/Seed4/./FFSim_Seed4/Cond00_v10.0_PL0.12_TI6.0/Case1_wdirp02/Seed_5/TurbSim/HighT10.bts (AeroDyn/TurbSim full-field wind file)


Turbulence Simulation Scaling Parameter Summary:

   Turbulence model used                            =  User-input time series
   Gradient Richardson number                       =    0.050
   Monin-Obukhov (M-O) z/L parameter                =    0.067
   Monin-Obukhov (M-O) length scale                 = 1340.250 m
   Mean wind speed at hub height                    =    9.991 m/s

   Wind profile type                                =  Power law
   Power law exponent                               =    0.120
   Mean shear across rotor disk                     =    0.019 (m/s)/m
   Assumed rotor diameter                           =  158.100 m
   Surface roughness length                         =    0.030 m

   Nyquist frequency of turbulent wind field        =    2.000 Hz

   Number of time steps in the FFT                  =     3600
   Number of time steps output                      =     3600
   Number of points simulated                       =     1296


Mean Flow Angles:

   Vertical   =   0.0 degrees
   Horizontal =   0.0 degrees

Mean Wind Speed Profile:

   Height    Wind Speed   Horizontal Angle  Vertical Angle  U-comp (X)   V-comp (Y)   W-comp (Z)
     (m)        (m/s)         (degrees)       (degrees)       (m/s)        (m/s)        (m/s)   
   ------    ----------   ----------------  --------------  ----------   ----------   ----------
    168.4       10.78            0.00            0.00         10.78         0.00         0.00
    163.7       10.74            0.00            0.00         10.74         0.00         0.00
    159.1       10.71            0.00            0.00         10.71         0.00         0.00
    154.4       10.67            0.00            0.00         10.67         0.00         0.00
    149.8       10.63            0.00            0.00         10.63         0.00         0.00
    145.1       10.59            0.00            0.00         10.59         0.00         0.00
    140.5       10.55            0.00            0.00         10.55         0.00         0.00
    135.8       10.51            0.00            0.00         10.51         0.00         0.00
    131.2       10.46            0.00            0.00         10.46         0.00         0.00
    126.5       10.42            0.00            0.00         10.42         0.00         0.00
    121.9       10.37            0.00            0.00         10.37         0.00         0.00
    117.2       10.32            0.00            0.00         10.32         0.00         0.00
    112.6       10.27            0.00            0.00         10.27         0.00         0.00
    107.9       10.22            0.00            0.00         10.22         0.00         0.00
    103.3       10.17            0.00            0.00         10.17         0.00         0.00
     98.6       10.11            0.00            0.00         10.11         0.00         0.00
     94.0       10.05            0.00            0.00         10.05         0.00         0.00
     89.3        9.99            0.00            0.00          9.99         0.00         0.00
     84.7        9.93            0.00            0.00          9.93         0.00         0.00
     80.0        9.86            0.00            0.00          9.86         0.00         0.00
     75.4        9.79            0.00            0.00          9.79         0.00         0.00
     70.7        9.72            0.00            0.00          9.72         0.00         0.00
     66.1        9.64            0.00            0.00          9.64         0.00         0.00
     61.4        9.55            0.00            0.00          9.55         0.00         0.00
     56.8        9.46            0.00            0.00          9.46         0.00         0.00
     52.1        9.37            0.00            0.00          9.37         0.00         0.00
     47.5        9.26            0.00            0.00          9.26         0.00         0.00
     42.8        9.15            0.00            0.00          9.15         0.00         0.00
     38.2        9.02            0.00            0.00          9.02         0.00         0.00
     33.5        8.88            0.00            0.00          8.88         0.00         0.00
     28.9        8.73            0.00            0.00          8.73         0.00         0.00
     24.2        8.54            0.00            0.00          8.54         0.00         0.00
     19.6        8.33            0.00            0.00          8.33         0.00         0.00
     14.9        8.06            0.00            0.00          8.06         0.00         0.00
     10.3        7.71            0.00            0.00          7.71         0.00         0.00
      5.6        7.17            0.00            0.00          7.17         0.00         0.00
      1.0        5.83            0.00            0.00          5.83         0.00         0.00


Harvested Random Seeds after Generation of the Random Numbers:

     65026800 K 1
            0 K 2


Hub-Height Simulated Turbulence Statistical Summary:

   Type of Wind        Min (m/s)   Mean (m/s)    Max (m/s)  Sigma (m/s)       TI (%)
   ----------------    ---------   ----------    ---------  -----------       ------
   Longitudinal (u)         8.32         9.99        11.72        0.552        5.523
   Lateral (v)             -1.31         0.00         1.77        0.473        4.734
   Vertical (w)            -0.99        -0.00         0.96        0.270        2.704
   U component              8.32         9.99        11.72        0.552        5.523
   V component             -1.31         0.00         1.77        0.473        4.734
   W component             -0.99        -0.00         0.96        0.270        2.704
   Horizontal (U&V)         8.35        10.00        11.73        0.552        5.515
   Total                    8.35        10.01        11.73        0.551        5.510

                       Min Reynolds     Mean Reynolds    Max Reynolds    Correlation
   Product             Stress (m/s)^2   Stress (m/s)^2   Stress (m/s)^2  Coefficient
   ----------------    --------------   --------------   --------------  -----------
   u'w'                     -1.135             0.008             0.789         0.056
   u'v'                     -1.348            -0.016             1.208        -0.062
   v'w'                     -0.787            -0.005             0.921        -0.041


   Friction Velocity (Ustar)  =      0.092 m/s
   Maximum Instantaneous TKE  =      1.887 (m/s)^2
   Maximum Instantaneous CTKE =      0.730 (m/s)^2


Grid Point Variance Summary:

   Y-coord  -79.05  -74.40  -69.75  -65.10  -60.45  -55.80  -51.15  -46.50  -41.85  -37.20  -32.55  -27.90  -23.25  -18.60  -13.95   -9.30   -4.65    0.00    4.65    9.30   13.95   18.60   23.25   27.90   32.55   37.20   41.85   46.50   51.15   55.80   60.45   65.10   69.75   74.40   79.05

   Height   Standard deviation at grid points for the u component:
   168.40    0.532   0.518   0.519   0.497   0.480   0.485   0.511   0.516   0.530   0.556   0.578   0.562   0.499   0.491   0.529   0.529   0.539   0.535   0.486   0.479   0.469   0.454   0.495   0.490   0.472   0.492   0.548   0.545   0.534   0.515   0.523   0.500   0.493   0.519   0.511
   163.75    0.499   0.494   0.479   0.512   0.506   0.481   0.498   0.484   0.511   0.536   0.529   0.545   0.556   0.517   0.531   0.498   0.531   0.519   0.482   0.470   0.488   0.467   0.486   0.490   0.453   0.471   0.485   0.533   0.538   0.497   0.460   0.483   0.500   0.505   0.470
   159.10    0.535   0.501   0.489   0.528   0.516   0.510   0.520   0.509   0.487   0.494   0.521   0.541   0.546   0.563   0.513   0.500   0.562   0.505   0.493   0.458   0.460   0.460   0.493   0.470   0.481   0.482   0.478   0.490   0.517   0.509   0.484   0.449   0.475   0.490   0.468
   154.45    0.504   0.492   0.528   0.515   0.482   0.473   0.487   0.500   0.497   0.541   0.503   0.522   0.508   0.517   0.529   0.518   0.556   0.497   0.487   0.516   0.486   0.447   0.463   0.505   0.473   0.449   0.454   0.489   0.498   0.493   0.499   0.453   0.460   0.465   0.476
   149.80    0.517   0.487   0.485   0.492   0.474   0.500   0.529   0.502   0.497   0.534   0.527   0.507   0.496   0.511   0.503   0.517   0.492   0.508   0.504   0.513   0.524   0.476   0.507   0.494   0.458   0.458   0.458   0.507   0.506   0.521   0.498   0.476   0.470   0.485   0.481
   145.15    0.518   0.516   0.460   0.480   0.485   0.508   0.532   0.517   0.511   0.534   0.527   0.518   0.496   0.479   0.514   0.493   0.514   0.491   0.500   0.535   0.508   0.532   0.496   0.483   0.479   0.469   0.475   0.492   0.477   0.497   0.499   0.470   0.458   0.469   0.467
   140.50    0.507   0.506   0.502   0.468   0.493   0.541   0.528   0.501   0.527   0.553   0.583   0.523   0.494   0.495   0.488   0.500   0.488   0.507   0.511   0.548   0.532   0.535   0.501   0.473   0.483   0.472   0.498   0.521   0.511   0.507   0.479   0.465   0.462   0.467   0.462
   135.85    0.497   0.459   0.481   0.500   0.510   0.490   0.521   0.502   0.500   0.512   0.520   0.512   0.493   0.510   0.523   0.497   0.481   0.493   0.485   0.529   0.550   0.539   0.541   0.483   0.498   0.499   0.549   0.537   0.535   0.576   0.516   0.459   0.440   0.447   0.452
   131.20    0.511   0.462   0.488   0.529   0.469   0.438   0.514   0.519   0.534   0.507   0.499   0.452   0.484   0.485   0.498   0.479   0.465   0.477   0.495   0.495   0.510   0.530   0.531   0.506   0.523   0.518   0.520   0.507   0.567   0.590   0.515   0.482   0.486   0.496   0.471
   126.55    0.497   0.478   0.471   0.455   0.471   0.469   0.494   0.525   0.532   0.527   0.489   0.455   0.466   0.447   0.452   0.462   0.441   0.447   0.457   0.493   0.521   0.522   0.541   0.555   0.540   0.548   0.523   0.565   0.548   0.560   0.581   0.513   0.512   0.479   0.472
   121.90    0.455   0.453   0.409   0.425   0.452   0.431   0.459   0.481   0.518   0.493   0.471   0.449   0.442   0.433   0.459   0.463   0.449   0.479   0.470   0.498   0.491   0.506   0.517   0.576   0.577   0.584   0.584   0.578   0.562   0.576   0.579   0.561   0.531   0.491   0.482
   117.25    0.469   0.432   0.427   0.455   0.452   0.466   0.462   0.464   0.489   0.472   0.464   0.477   0.436   0.489   0.487   0.453   0.466   0.520   0.534   0.505   0.508   0.520   0.564   0.527   0.554   0.572   0.559   0.547   0.571   0.556   0.571   0.570   0.578   0.538   0.525
   112.60    0.470   0.436   0.439   0.451   0.436   0.461   0.464   0.459   0.446   0.440   0.477   0.460   0.438   0.462   0.457   0.469   0.490   0.502   0.528   0.536   0.536   0.472   0.535   0.518   0.538   0.544   0.547   0.540   0.568   0.559   0.522   0.555   0.567   0.558   0.557
   107.95    0.470   0.470   0.468   0.488   0.451   0.498   0.469   0.460   0.479   0.456   0.472   0.468   0.432   0.486   0.501   0.471   0.483   0.470   0.539   0.512   0.501   0.493   0.517   0.593   0.571   0.558   0.510   0.539   0.558   0.543   0.506   0.547   0.548   0.546   0.559
   103.30    0.447   0.460   0.481   0.473   0.494   0.519   0.494   0.471   0.474   0.463   0.487   0.464   0.470   0.459   0.500   0.483   0.496   0.477   0.515   0.567   0.533   0.536   0.571   0.604   0.567   0.550   0.549   0.522   0.546   0.558   0.567   0.557   0.552   0.568   0.536
    98.65    0.468   0.477   0.506   0.496   0.520   0.509   0.512   0.469   0.469   0.493   0.470   0.500   0.539   0.504   0.486   0.481   0.499   0.536   0.516   0.605   0.574   0.595   0.576   0.581   0.573   0.569   0.569   0.544   0.523   0.561   0.534   0.535   0.531   0.522   0.511
    94.00    0.459   0.480   0.511   0.536   0.534   0.531   0.516   0.535   0.494   0.493   0.504   0.507   0.524   0.505   0.498   0.478   0.518   0.542   0.512   0.594   0.617   0.639   0.612   0.553   0.586   0.563   0.584   0.579   0.541   0.529   0.537   0.540   0.527   0.542   0.491
    89.35    0.436   0.459   0.502   0.522   0.531   0.563   0.590   0.525   0.505   0.517   0.496   0.506   0.492   0.510   0.511   0.537   0.534   0.552   0.544   0.572   0.619   0.585   0.595   0.574   0.547   0.555   0.533   0.569   0.570   0.523   0.565   0.528   0.509   0.525   0.524
    84.70    0.443   0.506   0.516   0.540   0.557   0.597   0.613   0.539   0.533   0.501   0.513   0.500   0.518   0.555   0.538   0.549   0.531   0.547   0.557   0.574   0.595   0.592   0.590   0.584   0.577   0.548   0.556   0.572   0.549   0.527   0.536   0.541   0.526   0.542   0.573
    80.05    0.474   0.508   0.504   0.549   0.588   0.598   0.568   0.541   0.511   0.498   0.519   0.522   0.552   0.561   0.574   0.584   0.531   0.535   0.553   0.552   0.553   0.576   0.599   0.562   0.585   0.602   0.591   0.570   0.574   0.580   0.564   0.587   0.594   0.555   0.539
    75.40    0.447   0.481   0.514   0.555   0.563   0.609   0.563   0.523   0.500   0.529   0.566   0.551   0.556   0.596   0.581   0.550   0.519   0.510   0.501   0.515   0.510   0.548   0.560   0.548   0.569   0.568   0.576   0.544   0.533   0.560   0.547   0.566   0.544   0.538   0.485
    70.75    0.458   0.484   0.470   0.544   0.554   0.604   0.552   0.515   0.558   0.557   0.564   0.544   0.581   0.615   0.599   0.580   0.505   0.519   0.497   0.504   0.539   0.539   0.573   0.585   0.582   0.594   0.582   0.547   0.543   0.543   0.506   0.534   0.491   0.495   0.482
    66.10    0.445   0.456   0.464   0.495   0.516   0.570   0.537   0.527   0.532   0.515   0.560   0.564   0.583   0.570   0.576   0.562   0.549   0.517   0.503   0.510   0.557   0.540   0.571   0.577   0.617   0.648   0.592   0.547   0.531   0.533   0.507   0.517   0.514   0.525   0.457
    61.45    0.431   0.449   0.473   0.494   0.485   0.533   0.516   0.491   0.496   0.538   0.528   0.533   0.566   0.545   0.547   0.552   0.530   0.542   0.545   0.503   0.500   0.524   0.586   0.559   0.571   0.582   0.580   0.570   0.553   0.504   0.525   0.545   0.486   0.492   0.493
    56.80    0.449   0.443   0.450   0.472   0.479   0.509   0.493   0.521   0.537   0.496   0.511   0.506   0.521   0.494   0.505   0.497   0.527   0.537   0.517   0.518   0.488   0.550   0.582   0.547   0.541   0.577   0.562   0.564   0.539   0.528   0.523   0.501   0.517   0.540   0.506
    52.15    0.477   0.478   0.451   0.448   0.452   0.478   0.510   0.496   0.495   0.468   0.478   0.468   0.477   0.498   0.499   0.541   0.548   0.525   0.503   0.494   0.492   0.518   0.537   0.545   0.554   0.558   0.543   0.555   0.547   0.571   0.576   0.596   0.562   0.549   0.533
    47.50    0.530   0.501   0.493   0.500   0.486   0.492   0.500   0.491   0.493   0.475   0.467   0.470   0.489   0.475   0.507   0.540   0.549   0.500   0.471   0.494   0.492   0.479   0.521   0.533   0.554   0.565   0.570   0.561   0.537   0.597   0.582   0.603   0.625   0.581   0.585
    42.85    0.516   0.524   0.545   0.509   0.481   0.505   0.511   0.460   0.458   0.457   0.460   0.462   0.474   0.523   0.519   0.568   0.565   0.537   0.499   0.480   0.509   0.507   0.454   0.489   0.522   0.551   0.574   0.599   0.590   0.591   0.578   0.564   0.612   0.582   0.570
    38.20    0.519   0.534   0.534   0.488   0.499   0.477   0.482   0.460   0.475   0.479   0.475   0.473   0.502   0.570   0.582   0.591   0.604   0.544   0.527   0.508   0.505   0.479   0.466   0.471   0.454   0.494   0.532   0.589   0.589   0.607   0.604   0.601   0.645   0.616   0.575
    33.55    0.540   0.520   0.503   0.514   0.499   0.460   0.455   0.439   0.447   0.461   0.467   0.487   0.541   0.574   0.626   0.622   0.612   0.576   0.528   0.555   0.496   0.516   0.485   0.469   0.471   0.479   0.551   0.583   0.594   0.633   0.586   0.587   0.607   0.595   0.573
    28.90    0.523   0.512   0.458   0.492   0.466   0.477   0.488   0.460   0.464   0.462   0.476   0.514   0.542   0.580   0.570   0.565   0.543   0.511   0.518   0.519   0.500   0.493   0.496   0.442   0.427   0.453   0.518   0.568   0.562   0.595   0.609   0.625   0.617   0.595   0.540
    24.25    0.525   0.505   0.508   0.452   0.493   0.473   0.449   0.467   0.453   0.470   0.483   0.508   0.536   0.540   0.561   0.528   0.514   0.522   0.512   0.491   0.486   0.484   0.512   0.464   0.425   0.448   0.502   0.523   0.594   0.571   0.602   0.619   0.582   0.550   0.550
    19.60    0.490   0.487   0.492   0.478   0.465   0.446   0.448   0.467   0.484   0.488   0.489   0.468   0.494   0.544   0.502   0.510   0.507   0.533   0.528   0.518   0.485   0.513   0.471   0.448   0.477   0.503   0.535   0.519   0.560   0.594   0.627   0.597   0.570   0.565   0.548
    14.95    0.498   0.446   0.457   0.465   0.478   0.457   0.467   0.470   0.501   0.507   0.487   0.504   0.501   0.494   0.477   0.484   0.504   0.514   0.478   0.525   0.527   0.505   0.490   0.497   0.494   0.512   0.510   0.523   0.549   0.588   0.602   0.565   0.547   0.548   0.565
    10.30    0.523   0.538   0.515   0.500   0.477   0.490   0.466   0.467   0.505   0.520   0.498   0.474   0.502   0.497   0.487   0.464   0.472   0.497   0.482   0.526   0.524   0.536   0.565   0.532   0.523   0.511   0.482   0.486   0.550   0.603   0.608   0.610   0.579   0.542   0.554
     5.65    0.555   0.530   0.536   0.554   0.539   0.519   0.516   0.480   0.506   0.518   0.512   0.470   0.479   0.468   0.501   0.509   0.490   0.490   0.492   0.514   0.513   0.526   0.546   0.529   0.521   0.509   0.514   0.518   0.535   0.577   0.549   0.561   0.575   0.563   0.526
     1.00    0.537   0.552   0.553   0.575   0.549   0.510   0.495   0.505   0.486   0.510   0.494   0.473   0.497   0.487   0.473   0.458   0.488   0.491   0.498   0.549   0.512   0.554   0.581   0.582   0.567   0.531   0.548   0.513   0.517   0.533   0.535   0.511   0.521   0.539   0.564

   Height   Standard deviation at grid points for the v component:
   168.40    0.455   0.451   0.439   0.428   0.430   0.434   0.434   0.429   0.421   0.434   0.436   0.451   0.442   0.448   0.428   0.421   0.439   0.423   0.431   0.424   0.417   0.475   0.445   0.435   0.433   0.411   0.414   0.424   0.434   0.427   0.422   0.423   0.392   0.413   0.426
   163.75    0.463   0.441   0.447   0.428   0.414   0.429   0.420   0.433   0.419   0.440   0.439   0.435   0.454   0.444   0.437   0.447   0.463   0.438   0.427   0.445   0.432   0.455   0.449   0.471   0.446   0.436   0.422   0.423   0.447   0.435   0.427   0.413   0.416   0.409   0.445
   159.10    0.442   0.431   0.425   0.419   0.414   0.410   0.427   0.420   0.421   0.437   0.452   0.437   0.454   0.463   0.451   0.468   0.453   0.431   0.431   0.449   0.454   0.440   0.453   0.446   0.425   0.442   0.461   0.449   0.451   0.439   0.438   0.422   0.410   0.416   0.437
   154.45    0.418   0.445   0.435   0.423   0.395   0.416   0.418   0.418   0.434   0.435   0.426   0.429   0.437   0.440   0.447   0.449   0.459   0.435   0.442   0.430   0.446   0.439   0.447   0.435   0.421   0.439   0.436   0.453   0.455   0.446   0.436   0.428   0.428   0.426   0.428
   149.80    0.422   0.436   0.417   0.438   0.396   0.420   0.409   0.436   0.438   0.423   0.428   0.458   0.460   0.441   0.446   0.438   0.468   0.456   0.447   0.451   0.445   0.440   0.415   0.436   0.417   0.420   0.469   0.469   0.449   0.460   0.439   0.421   0.438   0.440   0.445
   145.15    0.418   0.427   0.423   0.433   0.425   0.419   0.407   0.429   0.442   0.429   0.439   0.454   0.451   0.448   0.449   0.456   0.474   0.468   0.465   0.470   0.461   0.453   0.422   0.414   0.446   0.469   0.462   0.466   0.437   0.435   0.449   0.444   0.449   0.440   0.440
   140.50    0.421   0.409   0.426   0.427   0.419   0.414   0.417   0.411   0.414   0.428   0.449   0.455   0.469   0.458   0.450   0.470   0.469   0.460   0.468   0.467   0.453   0.455   0.466   0.455   0.431   0.457   0.474   0.450   0.442   0.453   0.443   0.446   0.445   0.436   0.447
   135.85    0.441   0.439   0.426   0.439   0.435   0.411   0.411   0.403   0.395   0.400   0.445   0.448   0.441   0.458   0.485   0.462   0.479   0.465   0.475   0.456   0.452   0.447   0.462   0.464   0.452   0.473   0.464   0.443   0.461   0.447   0.453   0.424   0.412   0.420   0.433
   131.20    0.410   0.435   0.418   0.417   0.420   0.411   0.405   0.397   0.393   0.411   0.422   0.435   0.451   0.469   0.457   0.461   0.453   0.454   0.461   0.453   0.446   0.446   0.469   0.447   0.446   0.456   0.471   0.455   0.449   0.445   0.434   0.431   0.429   0.420   0.442
   126.55    0.431   0.427   0.425   0.443   0.436   0.408   0.416   0.404   0.388   0.407   0.406   0.436   0.446   0.473   0.465   0.467   0.436   0.460   0.446   0.446   0.453   0.473   0.489   0.458   0.446   0.428   0.463   0.457   0.448   0.441   0.434   0.403   0.396   0.442   0.442
   121.90    0.421   0.435   0.429   0.462   0.446   0.427   0.417   0.390   0.407   0.394   0.409   0.416   0.421   0.470   0.464   0.472   0.490   0.477   0.466   0.440   0.441   0.444   0.469   0.472   0.457   0.425   0.441   0.457   0.447   0.438   0.407   0.415   0.404   0.420   0.434
   117.25    0.439   0.432   0.445   0.431   0.444   0.416   0.415   0.401   0.406   0.399   0.426   0.413   0.434   0.458   0.465   0.478   0.488   0.475   0.444   0.445   0.461   0.474   0.485   0.458   0.475   0.448   0.437   0.469   0.456   0.448   0.417   0.419   0.402   0.386   0.410
   112.60    0.448   0.449   0.438   0.436   0.441   0.438   0.444   0.426   0.414   0.420   0.424   0.426   0.432   0.458   0.485   0.458   0.483   0.480   0.461   0.480   0.489   0.468   0.469   0.476   0.449   0.482   0.455   0.452   0.475   0.455   0.470   0.448   0.415   0.403   0.421
   107.95    0.454   0.457   0.439   0.447   0.445   0.446   0.445   0.451   0.413   0.405   0.393   0.407   0.449   0.471   0.488   0.506   0.487   0.476   0.507   0.512   0.486   0.469   0.466   0.474   0.473   0.454   0.431   0.446   0.480   0.487   0.492   0.467   0.448   0.415   0.439
   103.30    0.424   0.440   0.448   0.437   0.428   0.428   0.455   0.468   0.429   0.402   0.403   0.404   0.428   0.463   0.455   0.515   0.526   0.501   0.508   0.503   0.499   0.505   0.495   0.441   0.450   0.444   0.456   0.459   0.482   0.503   0.500   0.462   0.438   0.432   0.446
    98.65    0.415   0.411   0.448   0.430   0.418   0.429   0.445   0.451   0.425   0.418   0.420   0.422   0.450   0.433   0.461   0.504   0.492   0.487   0.477   0.506   0.484   0.492   0.461   0.432   0.453   0.445   0.473   0.477   0.492   0.502   0.509   0.484   0.478   0.473   0.439
    94.00    0.424   0.456   0.450   0.460   0.429   0.444   0.445   0.461   0.446   0.432   0.421   0.436   0.463   0.462   0.480   0.490   0.467   0.460   0.499   0.483   0.487   0.466   0.457   0.436   0.453   0.460   0.463   0.501   0.518   0.476   0.496   0.495   0.469   0.467   0.460
    89.35    0.452   0.450   0.449   0.453   0.459   0.447   0.454   0.437   0.423   0.437   0.433   0.443   0.445   0.456   0.441   0.481   0.462   0.473   0.480   0.503   0.471   0.452   0.457   0.459   0.464   0.465   0.470   0.486   0.495   0.496   0.476   0.484   0.458   0.456   0.436
    84.70    0.461   0.443   0.466   0.459   0.447   0.461   0.447   0.444   0.449   0.440   0.440   0.451   0.467   0.469   0.473   0.485   0.507   0.488   0.493   0.468   0.469   0.463   0.459   0.482   0.477   0.459   0.470   0.473   0.480   0.459   0.477   0.477   0.471   0.462   0.447
    80.05    0.427   0.444   0.459   0.447   0.444   0.430   0.446   0.447   0.455   0.446   0.439   0.458   0.460   0.469   0.474   0.504   0.508   0.510   0.485   0.456   0.477   0.456   0.463   0.476   0.476   0.485   0.465   0.478   0.477   0.448   0.449   0.469   0.482   0.457   0.442
    75.40    0.442   0.452   0.442   0.441   0.437   0.453   0.451   0.436   0.442   0.459   0.468   0.488   0.470   0.465   0.483   0.512   0.512   0.518   0.475   0.476   0.482   0.467   0.474   0.466   0.468   0.468   0.472   0.497   0.504   0.465   0.445   0.419   0.433   0.453   0.449
    70.75    0.451   0.432   0.455   0.454   0.458   0.451   0.477   0.460   0.448   0.485   0.492   0.493   0.503   0.502   0.493   0.500   0.522   0.513   0.494   0.458   0.481   0.453   0.455   0.453   0.476   0.480   0.459   0.480   0.467   0.418   0.412   0.395   0.404   0.457   0.478
    66.10    0.414   0.436   0.458   0.456   0.479   0.474   0.474   0.457   0.462   0.483   0.486   0.509   0.512   0.523   0.534   0.539   0.543   0.506   0.496   0.471   0.476   0.463   0.451   0.458   0.464   0.462   0.480   0.493   0.465   0.431   0.425   0.412   0.422   0.435   0.459
    61.45    0.451   0.422   0.442   0.467   0.473   0.480   0.485   0.487   0.461   0.482   0.497   0.511   0.530   0.546   0.551   0.563   0.551   0.531   0.492   0.460   0.464   0.484   0.484   0.488   0.459   0.447   0.466   0.456   0.448   0.425   0.417   0.386   0.412   0.428   0.436
    56.80    0.448   0.452   0.463   0.470   0.484   0.486   0.505   0.525   0.507   0.505   0.510   0.517   0.516   0.549   0.560   0.570   0.553   0.524   0.494   0.477   0.451   0.459   0.478   0.489   0.466   0.458   0.426   0.446   0.435   0.432   0.433   0.403   0.410   0.412   0.419
    52.15    0.459   0.485   0.482   0.505   0.503   0.484   0.498   0.502   0.526   0.552   0.555   0.560   0.564   0.588   0.542   0.559   0.537   0.540   0.485   0.468   0.486   0.470   0.448   0.432   0.444   0.439   0.414   0.397   0.424   0.432   0.454   0.459   0.422   0.402   0.401
    47.50    0.489   0.480   0.483   0.496   0.507   0.510   0.506   0.492   0.501   0.555   0.570   0.586   0.606   0.578   0.550   0.505   0.522   0.507   0.502   0.491   0.503   0.473   0.464   0.444   0.434   0.426   0.419   0.391   0.410   0.411   0.457   0.483   0.466   0.441   0.431
    42.85    0.485   0.511   0.492   0.478   0.486   0.503   0.508   0.500   0.519   0.556   0.577   0.588   0.593   0.564   0.571   0.540   0.525   0.501   0.483   0.473   0.471   0.484   0.464   0.437   0.435   0.422   0.417   0.411   0.415   0.455   0.436   0.438   0.455   0.444   0.449
    38.20    0.511   0.490   0.502   0.517   0.497   0.494   0.482   0.505   0.527   0.566   0.569   0.599   0.554   0.574   0.582   0.598   0.538   0.521   0.514   0.470   0.475   0.483   0.453   0.448   0.437   0.451   0.461   0.462   0.452   0.445   0.456   0.431   0.438   0.446   0.447
    33.55    0.502   0.510   0.494   0.481   0.504   0.491   0.485   0.506   0.519   0.550   0.588   0.567   0.562   0.593   0.593   0.589   0.537   0.527   0.504   0.478   0.460   0.473   0.462   0.437   0.445   0.458   0.433   0.477   0.466   0.466   0.442   0.440   0.447   0.464   0.468
    28.90    0.521   0.493   0.471   0.482   0.493   0.467   0.478   0.507   0.528   0.565   0.574   0.571   0.554   0.583   0.580   0.554   0.530   0.517   0.490   0.466   0.447   0.442   0.426   0.424   0.441   0.447   0.454   0.470   0.499   0.465   0.452   0.449   0.470   0.472   0.448
    24.25    0.496   0.490   0.474   0.480   0.472   0.478   0.489   0.496   0.536   0.557   0.557   0.540   0.546   0.577   0.560   0.572   0.524   0.479   0.476   0.449   0.431   0.433   0.434   0.443   0.440   0.467   0.457   0.442   0.456   0.479   0.466   0.442   0.454   0.468   0.473
    19.60    0.527   0.512   0.480   0.484   0.483   0.477   0.473   0.492   0.503   0.527   0.505   0.505   0.520   0.546   0.555   0.545   0.480   0.477   0.467   0.458   0.444   0.418   0.430   0.424   0.451   0.446   0.438   0.419   0.445   0.480   0.441   0.453   0.456   0.455   0.467
    14.95    0.537   0.530   0.509   0.503   0.479   0.494   0.492   0.496   0.509   0.527   0.520   0.488   0.493   0.505   0.514   0.513   0.485   0.451   0.442   0.436   0.418   0.429   0.437   0.425   0.437   0.445   0.452   0.439   0.458   0.462   0.452   0.443   0.432   0.444   0.460
    10.30    0.522   0.511   0.486   0.503   0.511   0.488   0.484   0.495   0.503   0.494   0.502   0.473   0.462   0.468   0.491   0.464   0.482   0.464   0.416   0.424   0.426   0.429   0.417   0.417   0.444   0.473   0.477   0.455   0.460   0.444   0.442   0.446   0.453   0.443   0.467
     5.65    0.503   0.485   0.491   0.506   0.495   0.448   0.463   0.473   0.498   0.498   0.507   0.468   0.442   0.474   0.495   0.487   0.488   0.456   0.433   0.427   0.397   0.417   0.432   0.429   0.445   0.456   0.471   0.483   0.460   0.434   0.466   0.451   0.455   0.466   0.473
     1.00    0.492   0.491   0.516   0.500   0.473   0.474   0.462   0.480   0.491   0.511   0.509   0.492   0.463   0.483   0.472   0.463   0.446   0.442   0.427   0.402   0.418   0.410   0.432   0.431   0.440   0.454   0.449   0.462   0.450   0.453   0.448   0.429   0.440   0.434   0.423

   Height   Standard deviation at grid points for the w component:
   168.40    0.274   0.292   0.297   0.289   0.314   0.306   0.304   0.299   0.292   0.285   0.273   0.272   0.276   0.279   0.278   0.283   0.296   0.311   0.305   0.297   0.298   0.291   0.298   0.284   0.279   0.279   0.274   0.286   0.283   0.290   0.281   0.281   0.280   0.281   0.282
   163.75    0.276   0.295   0.300   0.297   0.306   0.308   0.293   0.296   0.297   0.285   0.284   0.271   0.277   0.282   0.271   0.290   0.295   0.288   0.293   0.286   0.285   0.281   0.279   0.286   0.286   0.282   0.280   0.281   0.293   0.287   0.274   0.274   0.282   0.282   0.282
   159.10    0.288   0.290   0.303   0.306   0.310   0.307   0.291   0.292   0.306   0.294   0.274   0.271   0.283   0.279   0.281   0.277   0.279   0.277   0.280   0.283   0.279   0.270   0.275   0.285   0.283   0.284   0.276   0.284   0.288   0.287   0.270   0.278   0.286   0.291   0.286
   154.45    0.280   0.290   0.286   0.293   0.304   0.286   0.291   0.289   0.291   0.290   0.283   0.279   0.278   0.275   0.270   0.273   0.269   0.265   0.276   0.277   0.268   0.271   0.280   0.285   0.282   0.290   0.294   0.286   0.283   0.277   0.271   0.283   0.290   0.288   0.281
   149.80    0.286   0.287   0.285   0.283   0.293   0.292   0.286   0.287   0.273   0.285   0.286   0.285   0.284   0.285   0.266   0.276   0.280   0.275   0.275   0.279   0.275   0.278   0.278   0.283   0.286   0.292   0.288   0.287   0.286   0.278   0.275   0.288   0.278   0.297   0.283
   145.15    0.280   0.284   0.283   0.274   0.282   0.277   0.280   0.274   0.270   0.288   0.285   0.280   0.291   0.284   0.271   0.272   0.278   0.278   0.272   0.282   0.274   0.289   0.286   0.287   0.289   0.287   0.285   0.288   0.285   0.287   0.278   0.281   0.279   0.286   0.284
   140.50    0.285   0.274   0.277   0.276   0.275   0.277   0.282   0.268   0.285   0.294   0.283   0.276   0.272   0.284   0.276   0.271   0.275   0.270   0.272   0.283   0.283   0.289   0.279   0.288   0.288   0.287   0.286   0.293   0.287   0.282   0.285   0.283   0.274   0.288   0.285
   135.85    0.280   0.277   0.270   0.276   0.273   0.279   0.283   0.281   0.289   0.295   0.285   0.284   0.271   0.276   0.269   0.271   0.266   0.274   0.273   0.286   0.281   0.278   0.288   0.292   0.287   0.277   0.276   0.278   0.289   0.287   0.295   0.289   0.286   0.288   0.286
   131.20    0.272   0.273   0.273   0.272   0.269   0.276   0.282   0.289   0.291   0.285   0.288   0.282   0.275   0.277   0.266   0.276   0.272   0.279   0.282   0.291   0.282   0.289   0.288   0.282   0.285   0.269   0.270   0.277   0.275   0.279   0.279   0.289   0.291   0.287   0.282
   126.55    0.274   0.271   0.268   0.267   0.266   0.272   0.275   0.289   0.285   0.286   0.290   0.287   0.274   0.273   0.277   0.270   0.271   0.272   0.272   0.274   0.274   0.283   0.283   0.284   0.279   0.275   0.282   0.287   0.276   0.282   0.282   0.290   0.277   0.280   0.276
   121.90    0.277   0.270   0.271   0.260   0.261   0.255   0.268   0.287   0.274   0.266   0.274   0.277   0.274   0.268   0.272   0.277   0.275   0.274   0.273   0.276   0.262   0.267   0.266   0.276   0.283   0.289   0.279   0.280   0.268   0.275   0.285   0.288   0.287   0.279   0.290
   117.25    0.274   0.268   0.267   0.259   0.253   0.252   0.272   0.277   0.283   0.274   0.265   0.269   0.270   0.266   0.267   0.277   0.274   0.279   0.265   0.268   0.265   0.270   0.272   0.267   0.277   0.283   0.281   0.268   0.275   0.272   0.287   0.285   0.278   0.298   0.302
   112.60    0.273   0.262   0.261   0.271   0.262   0.265   0.281   0.277   0.282   0.287   0.273   0.270   0.272   0.273   0.284   0.277   0.276   0.269   0.263   0.267   0.280   0.270   0.267   0.275   0.280   0.272   0.269   0.266   0.266   0.272   0.275   0.286   0.298   0.306   0.294
   107.95    0.275   0.268   0.257   0.270   0.265   0.269   0.274   0.280   0.277   0.280   0.281   0.273   0.277   0.276   0.276   0.277   0.278   0.278   0.273   0.279   0.288   0.281   0.274   0.272   0.281   0.274   0.266   0.270   0.274   0.276   0.277   0.286   0.292   0.299   0.292
   103.30    0.266   0.268   0.275   0.269   0.269   0.276   0.274   0.271   0.272   0.283   0.280   0.278   0.272   0.275   0.272   0.279   0.275   0.275   0.268   0.268   0.275   0.280   0.281   0.271   0.282   0.272   0.269   0.274   0.280   0.286   0.282   0.284   0.292   0.294   0.293
    98.65    0.271   0.259   0.267   0.272   0.265   0.265   0.275   0.284   0.292   0.292   0.280   0.266   0.278   0.271   0.271   0.278   0.269   0.259   0.259   0.256   0.268   0.274   0.274   0.291   0.269   0.279   0.282   0.285   0.283   0.283   0.276   0.269   0.279   0.290   0.280
    94.00    0.271   0.270   0.272   0.273   0.267   0.276   0.278   0.286   0.289   0.286   0.279   0.270   0.272   0.279   0.270   0.269   0.266   0.278   0.266   0.263   0.259   0.264   0.263   0.278   0.275   0.280   0.287   0.283   0.286   0.273   0.282   0.274   0.276   0.274   0.272
    89.35    0.276   0.268   0.260   0.258   0.266   0.262   0.265   0.271   0.273   0.272   0.272   0.262   0.268   0.271   0.276   0.277   0.282   0.270   0.262   0.265   0.264   0.270   0.259   0.266   0.269   0.267   0.272   0.275   0.270   0.280   0.285   0.279   0.277   0.280   0.281
    84.70    0.267   0.270   0.270   0.262   0.260   0.260   0.261   0.261   0.261   0.277   0.267   0.270   0.275   0.278   0.271   0.270   0.273   0.276   0.282   0.278   0.255   0.275   0.269   0.262   0.269   0.265   0.266   0.274   0.278   0.281   0.292   0.280   0.274   0.274   0.280
    80.05    0.272   0.269   0.264   0.258   0.261   0.262   0.275   0.269   0.259   0.267   0.269   0.277   0.282   0.285   0.272   0.276   0.280   0.283   0.285   0.289   0.276   0.269   0.252   0.260   0.264   0.261   0.262   0.271   0.278   0.272   0.273   0.281   0.279   0.277   0.264
    75.40    0.272   0.267   0.260   0.257   0.258   0.262   0.264   0.269   0.264   0.264   0.263   0.280   0.277   0.267   0.275   0.285   0.280   0.282   0.283   0.293   0.290   0.275   0.274   0.278   0.270   0.255   0.263   0.269   0.269   0.267   0.265   0.265   0.261   0.271   0.275
    70.75    0.273   0.274   0.279   0.264   0.261   0.261   0.265   0.262   0.263   0.273   0.282   0.284   0.281   0.275   0.265   0.269   0.275   0.283   0.277   0.280   0.287   0.275   0.279   0.280   0.269   0.265   0.274   0.269   0.276   0.274   0.268   0.265   0.265   0.269   0.274
    66.10    0.274   0.268   0.263   0.259   0.266   0.268   0.267   0.259   0.267   0.268   0.280   0.281   0.279   0.270   0.279   0.265   0.274   0.276   0.274   0.270   0.270   0.280   0.286   0.291   0.275   0.275   0.275   0.272   0.274   0.276   0.281   0.261   0.263   0.277   0.282
    61.45    0.273   0.271   0.266   0.263   0.262   0.266   0.255   0.252   0.260   0.264   0.260   0.273   0.273   0.267   0.270   0.275   0.269   0.275   0.280   0.278   0.274   0.272   0.279   0.288   0.273   0.274   0.273   0.271   0.281   0.268   0.271   0.270   0.260   0.276   0.277
    56.80    0.263   0.266   0.269   0.260   0.265   0.259   0.262   0.255   0.246   0.251   0.260   0.266   0.264   0.280   0.270   0.271   0.272   0.268   0.280   0.268   0.275   0.278   0.279   0.278   0.282   0.271   0.269   0.275   0.273   0.266   0.270   0.267   0.267   0.286   0.277
    52.15    0.258   0.260   0.258   0.266   0.262   0.263   0.260   0.250   0.253   0.255   0.255   0.253   0.263   0.267   0.276   0.284   0.277   0.279   0.275   0.278   0.282   0.281   0.278   0.279   0.278   0.271   0.277   0.276   0.268   0.274   0.264   0.271   0.275   0.263   0.279
    47.50    0.264   0.268   0.267   0.276   0.268   0.263   0.257   0.259   0.259   0.264   0.261   0.268   0.273   0.275   0.288   0.272   0.278   0.268   0.273   0.278   0.271   0.272   0.272   0.277   0.274   0.267   0.273   0.269   0.266   0.265   0.266   0.266   0.276   0.276   0.278
    42.85    0.262   0.268   0.267   0.285   0.276   0.269   0.253   0.254   0.258   0.261   0.260   0.275   0.289   0.281   0.270   0.277   0.279   0.268   0.268   0.276   0.270   0.273   0.269   0.276   0.269   0.263   0.264   0.265   0.262   0.271   0.272   0.269   0.278   0.276   0.270
    38.20    0.261   0.270   0.280   0.276   0.266   0.279   0.269   0.260   0.255   0.268   0.281   0.274   0.276   0.278   0.279   0.272   0.284   0.280   0.274   0.278   0.277   0.276   0.277   0.265   0.268   0.265   0.259   0.268   0.270   0.275   0.276   0.280   0.273   0.273   0.267
    33.55    0.271   0.268   0.284   0.276   0.274   0.276   0.266   0.262   0.258   0.262   0.278   0.285   0.278   0.278   0.270   0.274   0.272   0.276   0.271   0.279   0.276   0.272   0.274   0.272   0.261   0.261   0.269   0.283   0.294   0.285   0.297   0.289   0.296   0.275   0.267
    28.90    0.271   0.269   0.288   0.274   0.278   0.280   0.282   0.271   0.269   0.270   0.279   0.279   0.280   0.276   0.274   0.277   0.279   0.280   0.276   0.274   0.277   0.285   0.288   0.279   0.266   0.267   0.277   0.283   0.289   0.298   0.294   0.296   0.288   0.289   0.268
    24.25    0.273   0.268   0.275   0.277   0.286   0.285   0.269   0.271   0.272   0.272   0.273   0.277   0.280   0.275   0.273   0.287   0.279   0.275   0.281   0.272   0.272   0.280   0.281   0.288   0.283   0.279   0.269   0.278   0.281   0.296   0.300   0.293   0.282   0.285   0.279
    19.60    0.271   0.278   0.280   0.271   0.267   0.274   0.268   0.270   0.281   0.283   0.275   0.280   0.275   0.281   0.282   0.283   0.276   0.266   0.268   0.278   0.272   0.277   0.277   0.286   0.284   0.281   0.290   0.287   0.287   0.296   0.295   0.294   0.289   0.276   0.275
    14.95    0.268   0.277   0.285   0.280   0.270   0.273   0.264   0.278   0.291   0.288   0.291   0.268   0.284   0.279   0.277   0.275   0.276   0.257   0.264   0.268   0.278   0.280   0.283   0.285   0.276   0.291   0.302   0.302   0.292   0.299   0.288   0.287   0.291   0.281   0.271
    10.30    0.271   0.270   0.287   0.279   0.268   0.273   0.270   0.270   0.283   0.286   0.281   0.274   0.278   0.271   0.274   0.268   0.272   0.273   0.264   0.262   0.278   0.284   0.280   0.278   0.270   0.282   0.283   0.286   0.279   0.292   0.294   0.303   0.289   0.282   0.283
     5.65    0.268   0.266   0.271   0.268   0.264   0.262   0.266   0.271   0.276   0.280   0.279   0.275   0.275   0.270   0.266   0.271   0.281   0.280   0.270   0.266   0.273   0.274   0.267   0.268   0.270   0.277   0.276   0.268   0.279   0.278   0.274   0.281   0.280   0.290   0.282
     1.00    0.271   0.269   0.269   0.267   0.261   0.267   0.260   0.283   0.274   0.282   0.277   0.283   0.284   0.268   0.276   0.280   0.274   0.274   0.266   0.259   0.257   0.261   0.263   0.266   0.264   0.276   0.274   0.279   0.281   0.284   0.282   0.285   0.270   0.283   0.268

   Mean standard deviation across all grid points:
      u component:    0.517 m/s
      v component:    0.461 m/s
      w component:    0.276 m/s


U-component (X) statistics from the interpolated hub point:

   Mean =   9.9913 m/s
   TI   =   5.5235 %


Processing complete.  6038.4 CPU seconds used.
