
This summary file was generated by TurbSim (from OpenFAST-v3.5.3) on 19-Apr-2025 at 22:01:12.


Runtime Options:

1333634118  Random seed #1
    RANLUX  Type of random number generator
         F  Output binary HH turbulence parameters?
         F  Output formatted turbulence parameters?
         F  Output AeroDyn HH files?
         T  Output AeroDyn FF files?
         F  Output BLADED FF files?
         F  Output tower data?
         F  Output HAWC FF files?
         F  Output formatted FF files?
         T  Output coherent turbulence time step file?
 0 -  NONE  IEC turbulence models scaled to exact specified standard deviation


Turbine/Model Specifications:

        39  Vertical grid-point matrix dimension
       193  Horizontal grid-point matrix dimension
     0.250  Time step [seconds]
   900.000  Analysis time [seconds]
   900.000  Usable output time [seconds]
   177.700  Hub height [m]
   353.400  Grid height [m]
  1785.600  Grid width [m]
     0.000  Vertical flow angle [degrees]
     0.000  Horizontal flow angle [degrees]


Meteorological Boundary Conditions:

    IECKAI  IEC Kaimal spectral model
         1  IEC standard: IEC 61400-1 Ed. 3: 2005
     6.000  Percent turbulence intensity, IEC 61400-1 Ed. 3: 2005
       NTM  IEC Normal Turbulence Model
       N/A  IEC Extreme Turbulence Model (ETM) "c" parameter [m/s]
       USR  Wind profile type
    90.000  Reference height [m]
       N/A  Reference wind speed [m/s]
       N/A  Jet height [m]
       N/A  Power law exponent
     0.030  Surface roughness length [m]


Non-IEC Meteorological Boundary Conditions:

       N/A  Site latitude [degrees]
       N/A  Gradient Richardson number
       N/A  Friction or shear velocity [m/s]
       N/A  Mixing layer depth [m]
       N/A  Mean hub u'w' Reynolds stress
       N/A  Mean hub u'v' Reynolds stress
       N/A  Mean hub v'w' Reynolds stress


Spatial Coherence Models:

       IEC  u-component coherence model
       IEC  v-component coherence model
       IEC  w-component coherence model
(   12.000, 0.353E-03)  u-component coherence parameters
(   12.000, 0.353E-03)  v-component coherence parameters
(   12.000, 0.353E-03)  w-component coherence parameters
       N/A  Coherence exponent


User-Defined Profiles:

  Height   Wind Speed   Horizontal Angle
   (m)        (m/s)          (deg)      
  ------   ----------   ----------------
  353.40      10.00         318.19
  334.80      10.00         321.14
  316.20      10.00         324.10
  297.60      10.00         327.05
  279.00      10.00         330.00
  260.40      10.00         332.95
  241.80      10.00         335.90
  223.20      10.00         338.86
  204.60      10.00         341.81
  186.00      10.00         344.76
  167.40      10.00         347.71
  148.80      10.00         350.67
  130.20      10.00         353.62
  111.60      10.00         356.57
   93.00      10.00         359.52
   74.40      10.00           2.48
   55.80      10.00           5.43
   37.20      10.00           8.38
   18.60      10.00          11.33
    0.00      10.00          14.29


You have requested that the following file(s) be generated:

   /kfs3/scratch/agupta/Projects/RL_Incubator/FinalRuns_Veer/Seed4/./FFSim_Seed4/Cond00_v10.0_PL0.12_TI6.0/Seed_4/Low.bts (AeroDyn/TurbSim full-field wind file)


Turbulence Simulation Scaling Parameter Summary:

   Turbulence model used                            =  IEC Kaimal
   Turbulence characteristic                        =  User-specified
   IEC standard                                     =  IEC 61400-1 Ed. 3: 2005
   Mean wind speed at hub height                    =   10.000 m/s
   Characteristic value of standard deviation       =    0.600 m/s
   Turbulence scale                                 =   42.000 m
   u-component integral scale                       =  340.200 m
   Coherency scale                                  =  340.200 m
   Characteristic value of hub turbulence intensity =    6.000%
   Gradient Richardson number                       =    0.000

   Wind profile type                                =  Linear interpolation of user-defined profile
   Equivalent power law exponent (upper rotor disk) =    0.000
   Mean shear across rotor disk                     =    0.000 (m/s)/m
   Assumed rotor diameter                           =  353.400 m
   Surface roughness length                         =    0.030 m

   Nyquist frequency of turbulent wind field        =    2.000 Hz

   Number of time steps in the FFT                  =     3600
   Number of time steps output                      =     3600
   Number of points simulated                       =     7527


Mean Flow Angles:

   Vertical   =   0.0 degrees
   Horizontal =   0.0 degrees

Mean Wind Speed Profile:

   Height    Wind Speed   Horizontal Angle  Vertical Angle  U-comp (X)   V-comp (Y)   W-comp (Z)
     (m)        (m/s)         (degrees)       (degrees)       (m/s)        (m/s)        (m/s)   
   ------    ----------   ----------------  --------------  ----------   ----------   ----------
    354.4       10.00          318.19            0.00          7.45        -6.67         0.00
    345.1       10.00          319.51            0.00          7.60        -6.49         0.00
    335.8       10.00          320.98            0.00          7.77        -6.30         0.00
    326.5       10.00          322.46            0.00          7.93        -6.09         0.00
    317.2       10.00          323.94            0.00          8.08        -5.89         0.00
    307.9       10.00          325.41            0.00          8.23        -5.68         0.00
    298.6       10.00          326.89            0.00          8.38        -5.46         0.00
    289.3       10.00          328.37            0.00          8.51        -5.25         0.00
    280.0       10.00          329.84            0.00          8.65        -5.02         0.00
    270.7       10.00          331.32            0.00          8.77        -4.80         0.00
    261.4       10.00          332.79            0.00          8.89        -4.57         0.00
    252.1       10.00          334.27            0.00          9.01        -4.34         0.00
    242.8       10.00          335.75            0.00          9.12        -4.11         0.00
    233.5       10.00          337.22            0.00          9.22        -3.87         0.00
    224.2       10.00          338.70            0.00          9.32        -3.63         0.00
    214.9       10.00          340.17            0.00          9.41        -3.39         0.00
    205.6       10.00          341.65            0.00          9.49        -3.15         0.00
    196.3       10.00          343.13            0.00          9.57        -2.90         0.00
    187.0       10.00          344.60            0.00          9.64        -2.66         0.00
    177.7       10.00          346.08            0.00          9.71        -2.41         0.00
    168.4       10.00          347.56            0.00          9.77        -2.15         0.00
    159.1       10.00          349.03            0.00          9.82        -1.90         0.00
    149.8       10.00          350.51            0.00          9.86        -1.65         0.00
    140.5       10.00          351.98            0.00          9.90        -1.39         0.00
    131.2       10.00          353.46            0.00          9.93        -1.14         0.00
    121.9       10.00          354.94            0.00          9.96        -0.88         0.00
    112.6       10.00          356.41            0.00          9.98        -0.63         0.00
    103.3       10.00          357.89            0.00          9.99        -0.37         0.00
     94.0       10.00          359.37            0.00         10.00        -0.11         0.00
     84.7       10.00          360.84            0.00         10.00         0.15         0.00
     75.4       10.00          362.32            0.00          9.99         0.40         0.00
     66.1       10.00            3.79            0.00          9.98         0.66         0.00
     56.8       10.00            5.27            0.00          9.96         0.92         0.00
     47.5       10.00            6.75            0.00          9.93         1.17         0.00
     38.2       10.00            8.22            0.00          9.90         1.43         0.00
     28.9       10.00            9.70            0.00          9.86         1.68         0.00
     19.6       10.00           11.17            0.00          9.81         1.94         0.00
     10.3       10.00           12.65            0.00          9.76         2.19         0.00
      1.0       10.00           14.13            0.00          9.70         2.44         0.00


Harvested Random Seeds after Generation of the Random Numbers:

    377667225 K 1
            0 K 2


Hub-Height Simulated Turbulence Statistical Summary:

   Type of Wind        Min (m/s)   Mean (m/s)    Max (m/s)  Sigma (m/s)       TI (%)
   ----------------    ---------   ----------    ---------  -----------       ------
   Longitudinal (u)         8.13        10.00        11.76        0.605        6.053
   Lateral (v)             -1.21        -0.00         1.24        0.430        4.302
   Vertical (w)            -1.11        -0.00         0.99        0.293        2.933
   U component              7.74         9.71        11.58        0.607        6.257
   V component             -3.63        -2.41        -1.03        0.427        4.404
   W component             -1.11        -0.00         0.99        0.293        3.022
   Horizontal (U&V)         8.14        10.01        11.78        0.605        6.045
   Total                    8.14        10.01        11.78        0.605        6.038

                       Min Reynolds     Mean Reynolds    Max Reynolds    Correlation
   Product             Stress (m/s)^2   Stress (m/s)^2   Stress (m/s)^2  Coefficient
   ----------------    --------------   --------------   --------------  -----------
   u'w'                     -0.777            -0.003             0.997        -0.016
   u'v'                     -1.203             0.027             1.605         0.106
   v'w'                     -0.705             0.004             0.624         0.030


   Friction Velocity (Ustar)  =      0.053 m/s
   Maximum Instantaneous TKE  =      2.091 (m/s)^2
   Maximum Instantaneous CTKE =      0.833 (m/s)^2


Grid Point Variance Summary:

   Y-coord -892.80 -883.50 -874.20 -864.90 -855.60 -846.30 -837.00 -827.70 -818.40 -809.10 -799.80 -790.50 -781.20 -771.90 -762.60 -753.30 -744.00 -734.70 -725.40 -716.10 -706.80 -697.50 -688.20 -678.90 -669.60 -660.30 -651.00 -641.70 -632.40 -623.10 -613.80 -604.50 -595.20 -585.90 -576.60 -567.30 -558.00 -548.70 -539.40 -530.10 -520.80 -511.50 -502.20 -492.90 -483.60 -474.30 -465.00 -455.70 -446.40 -437.10 -427.80 -418.50 -409.20 -399.90 -390.60 -381.30 -372.00 -362.70 -353.40 -344.10 -334.80 -325.50 -316.20 -306.90 -297.60 -288.30 -279.00 -269.70 -260.40 -251.10 -241.80 -232.50 -223.20 -213.90 -204.60 -195.30 -186.00 -176.70 -167.40 -158.10 -148.80 -139.50 -130.20 -120.90 -111.60 -102.30  -93.00  -83.70  -74.40  -65.10  -55.80  -46.50  -37.20  -27.90  -18.60   -9.30    0.00    9.30   18.60   27.90   37.20   46.50   55.80   65.10   74.40   83.70   93.00  102.30  111.60  120.90  130.20  139.50  148.80  158.10  167.40  176.70  186.00  195.30  204.60  213.90  223.20  232.50  241.80  251.10  260.40  269.70  279.00  288.30  297.60  306.90  316.20  325.50  334.80  344.10  353.40  362.70  372.00  381.30  390.60  399.90  409.20  418.50  427.80  437.10  446.40  455.70  465.00  474.30  483.60  492.90  502.20  511.50  520.80  530.10  539.40  548.70  558.00  567.30  576.60  585.90  595.20  604.50  613.80  623.10  632.40  641.70  651.00  660.30  669.60  678.90  688.20  697.50  706.80  716.10  725.40  734.70  744.00  753.30  762.60  771.90  781.20  790.50  799.80  809.10  818.40  827.70  837.00  846.30  855.60  864.90  874.20  883.50  892.80

   Height   Standard deviation at grid points for the u component:
   354.40    0.502   0.539   0.562   0.596   0.606   0.626   0.613   0.584   0.556   0.562   0.586   0.574   0.548   0.582   0.531   0.552   0.496   0.484   0.470   0.455   0.453   0.448   0.475   0.484   0.487   0.495   0.502   0.505   0.499   0.544   0.506   0.531   0.535   0.544   0.511   0.539   0.528   0.564   0.610   0.623   0.574   0.550   0.571   0.530   0.543   0.526   0.505   0.517   0.505   0.505   0.521   0.514   0.507   0.559   0.560   0.579   0.558   0.526   0.530   0.491   0.483   0.495   0.498   0.539   0.522   0.524   0.541   0.527   0.524   0.506   0.551   0.532   0.492   0.530   0.528   0.519   0.555   0.596   0.619   0.584   0.581   0.578   0.577   0.579   0.580   0.593   0.580   0.588   0.557   0.599   0.591   0.630   0.621   0.665   0.636   0.618   0.603   0.568   0.581   0.615   0.581   0.538   0.575   0.558   0.541   0.550   0.532   0.540   0.558   0.574   0.569   0.582   0.592   0.589   0.617   0.603   0.596   0.574   0.566   0.555   0.548   0.553   0.584   0.532   0.524   0.546   0.541   0.549   0.578   0.540   0.553   0.597   0.639   0.611   0.616   0.622   0.644   0.614   0.605   0.591   0.593   0.600   0.569   0.605   0.569   0.603   0.580   0.591   0.610   0.606   0.611   0.615   0.603   0.588   0.587   0.598   0.618   0.594   0.549   0.539   0.538   0.558   0.536   0.498   0.483   0.524   0.561   0.554   0.529   0.487   0.541   0.533   0.518   0.553   0.528   0.533   0.502   0.535   0.546   0.512   0.504   0.510   0.514   0.572   0.550   0.561   0.547   0.533   0.582   0.589   0.586   0.603   0.582
   345.10    0.543   0.536   0.531   0.572   0.626   0.633   0.595   0.562   0.588   0.586   0.558   0.563   0.592   0.590   0.563   0.554   0.519   0.491   0.468   0.472   0.490   0.443   0.474   0.473   0.481   0.469   0.494   0.501   0.542   0.521   0.535   0.556   0.510   0.539   0.556   0.567   0.563   0.631   0.628   0.601   0.578   0.532   0.531   0.545   0.503   0.525   0.544   0.507   0.489   0.514   0.489   0.493   0.515   0.550   0.578   0.586   0.562   0.545   0.564   0.519   0.478   0.499   0.499   0.537   0.520   0.524   0.521   0.509   0.519   0.539   0.522   0.491   0.494   0.519   0.532   0.495   0.484   0.572   0.618   0.587   0.567   0.597   0.622   0.654   0.554   0.560   0.605   0.590   0.603   0.620   0.596   0.618   0.605   0.599   0.627   0.630   0.609   0.603   0.570   0.611   0.590   0.537   0.513   0.537   0.561   0.520   0.527   0.563   0.561   0.535   0.536   0.541   0.553   0.561   0.576   0.566   0.566   0.554   0.602   0.573   0.554   0.547   0.558   0.570   0.527   0.493   0.544   0.579   0.570   0.565   0.564   0.570   0.589   0.621   0.607   0.608   0.601   0.597   0.590   0.580   0.585   0.620   0.655   0.648   0.631   0.610   0.614   0.605   0.615   0.615   0.579   0.592   0.544   0.568   0.540   0.553   0.583   0.566   0.559   0.525   0.535   0.569   0.524   0.539   0.484   0.523   0.572   0.553   0.536   0.514   0.517   0.534   0.538   0.533   0.526   0.506   0.513   0.520   0.481   0.480   0.480   0.470   0.501   0.536   0.527   0.544   0.546   0.551   0.560   0.630   0.603   0.594   0.585
   335.80    0.594   0.572   0.575   0.622   0.674   0.659   0.640   0.609   0.614   0.593   0.560   0.574   0.563   0.561   0.570   0.559   0.560   0.527   0.484   0.460   0.502   0.460   0.487   0.441   0.473   0.468   0.463   0.500   0.531   0.517   0.517   0.555   0.549   0.562   0.570   0.602   0.623   0.625   0.615   0.592   0.592   0.556   0.551   0.554   0.523   0.543   0.526   0.554   0.533   0.506   0.505   0.496   0.516   0.551   0.551   0.562   0.599   0.590   0.572   0.558   0.529   0.515   0.525   0.546   0.556   0.542   0.529   0.521   0.513   0.537   0.509   0.500   0.495   0.509   0.544   0.548   0.519   0.555   0.582   0.552   0.554   0.597   0.619   0.612   0.582   0.576   0.575   0.559   0.557   0.564   0.604   0.624   0.595   0.567   0.597   0.611   0.615   0.614   0.583   0.609   0.602   0.554   0.538   0.482   0.531   0.551   0.553   0.552   0.540   0.559   0.536   0.541   0.567   0.575   0.570   0.569   0.592   0.589   0.574   0.579   0.514   0.533   0.526   0.543   0.520   0.489   0.556   0.550   0.549   0.571   0.574   0.603   0.582   0.586   0.581   0.601   0.605   0.592   0.596   0.597   0.556   0.609   0.643   0.595   0.631   0.639   0.656   0.628   0.570   0.559   0.592   0.599   0.566   0.550   0.533   0.577   0.582   0.576   0.541   0.565   0.563   0.576   0.568   0.556   0.511   0.527   0.545   0.504   0.483   0.541   0.559   0.551   0.559   0.512   0.536   0.540   0.528   0.488   0.488   0.456   0.484   0.473   0.478   0.513   0.522   0.576   0.522   0.547   0.567   0.603   0.563   0.586   0.603
   326.50    0.620   0.591   0.583   0.644   0.659   0.647   0.693   0.654   0.640   0.636   0.619   0.543   0.560   0.549   0.587   0.589   0.545   0.529   0.495   0.473   0.492   0.479   0.515   0.493   0.478   0.467   0.517   0.524   0.522   0.493   0.491   0.550   0.594   0.570   0.602   0.614   0.630   0.612   0.573   0.606   0.557   0.527   0.545   0.533   0.523   0.512   0.566   0.540   0.525   0.543   0.537   0.511   0.535   0.529   0.572   0.591   0.625   0.612   0.632   0.576   0.576   0.535   0.548   0.542   0.580   0.572   0.563   0.533   0.541   0.557   0.528   0.530   0.499   0.484   0.545   0.548   0.512   0.516   0.528   0.548   0.554   0.527   0.564   0.565   0.553   0.544   0.511   0.547   0.567   0.580   0.559   0.592   0.574   0.563   0.574   0.562   0.586   0.570   0.611   0.630   0.642   0.564   0.548   0.516   0.526   0.546   0.571   0.564   0.571   0.541   0.519   0.527   0.547   0.563   0.520   0.558   0.552   0.594   0.574   0.599   0.548   0.525   0.505   0.517   0.511   0.548   0.543   0.567   0.613   0.614   0.609   0.592   0.630   0.600   0.592   0.600   0.601   0.590   0.606   0.573   0.628   0.606   0.636   0.634   0.608   0.635   0.602   0.620   0.604   0.576   0.591   0.597   0.592   0.553   0.555   0.559   0.566   0.555   0.522   0.548   0.554   0.549   0.574   0.561   0.533   0.521   0.509   0.461   0.461   0.509   0.564   0.564   0.527   0.561   0.572   0.559   0.562   0.516   0.492   0.489   0.484   0.505   0.542   0.501   0.486   0.540   0.555   0.535   0.581   0.598   0.558   0.587   0.623
   317.20    0.621   0.623   0.625   0.625   0.624   0.615   0.658   0.642   0.599   0.636   0.587   0.558   0.559   0.543   0.594   0.559   0.513   0.509   0.509   0.493   0.507   0.515   0.519   0.505   0.530   0.495   0.527   0.507   0.527   0.509   0.521   0.594   0.621   0.589   0.579   0.593   0.596   0.605   0.553   0.587   0.600   0.545   0.544   0.558   0.530   0.550   0.555   0.567   0.560   0.578   0.568   0.569   0.541   0.564   0.616   0.584   0.602   0.643   0.633   0.604   0.627   0.553   0.540   0.575   0.590   0.612   0.560   0.578   0.551   0.510   0.537   0.559   0.515   0.510   0.550   0.519   0.543   0.520   0.496   0.513   0.529   0.537   0.509   0.550   0.548   0.531   0.521   0.530   0.559   0.515   0.530   0.559   0.571   0.511   0.524   0.567   0.582   0.597   0.595   0.652   0.613   0.607   0.578   0.565   0.547   0.563   0.603   0.553   0.557   0.526   0.520   0.521   0.556   0.585   0.555   0.566   0.580   0.583   0.567   0.585   0.595   0.574   0.498   0.510   0.496   0.530   0.515   0.580   0.591   0.600   0.590   0.592   0.595   0.546   0.578   0.611   0.612   0.597   0.571   0.563   0.566   0.589   0.582   0.574   0.586   0.569   0.618   0.577   0.606   0.605   0.602   0.631   0.634   0.585   0.579   0.600   0.543   0.586   0.530   0.577   0.543   0.582   0.560   0.542   0.503   0.492   0.498   0.505   0.455   0.490   0.532   0.555   0.544   0.540   0.602   0.588   0.598   0.548   0.540   0.496   0.484   0.538   0.540   0.512   0.530   0.541   0.547   0.589   0.584   0.616   0.599   0.618   0.609
   307.90    0.577   0.634   0.588   0.594   0.590   0.610   0.614   0.622   0.583   0.601   0.578   0.592   0.554   0.549   0.543   0.546   0.515   0.498   0.494   0.520   0.507   0.505   0.500   0.494   0.501   0.498   0.551   0.571   0.528   0.524   0.528   0.542   0.593   0.594   0.590   0.610   0.605   0.569   0.537   0.595   0.604   0.556   0.559   0.534   0.560   0.565   0.537   0.550   0.556   0.552   0.571   0.598   0.585   0.584   0.615   0.592   0.571   0.618   0.610   0.601   0.620   0.564   0.596   0.594   0.568   0.593   0.602   0.596   0.531   0.516   0.515   0.518   0.520   0.488   0.496   0.472   0.523   0.559   0.530   0.523   0.540   0.559   0.507   0.519   0.521   0.559   0.530   0.559   0.527   0.545   0.557   0.565   0.530   0.552   0.562   0.593   0.538   0.583   0.598   0.620   0.597   0.613   0.600   0.577   0.605   0.596   0.628   0.575   0.540   0.550   0.534   0.535   0.600   0.582   0.595   0.635   0.595   0.595   0.578   0.594   0.619   0.551   0.540   0.528   0.500   0.517   0.534   0.554   0.595   0.576   0.593   0.606   0.586   0.552   0.575   0.623   0.624   0.597   0.555   0.533   0.550   0.555   0.525   0.557   0.584   0.570   0.586   0.602   0.575   0.564   0.583   0.604   0.653   0.619   0.633   0.654   0.609   0.560   0.579   0.597   0.574   0.599   0.546   0.526   0.548   0.528   0.499   0.484   0.497   0.475   0.470   0.543   0.575   0.553   0.575   0.576   0.571   0.536   0.577   0.549   0.539   0.528   0.518   0.543   0.564   0.556   0.547   0.559   0.579   0.581   0.577   0.581   0.637
   298.60    0.581   0.572   0.637   0.605   0.640   0.631   0.646   0.622   0.624   0.632   0.615   0.593   0.567   0.596   0.540   0.549   0.540   0.517   0.539   0.518   0.505   0.473   0.480   0.464   0.500   0.496   0.534   0.539   0.533   0.497   0.524   0.567   0.575   0.588   0.543   0.617   0.639   0.574   0.540   0.554   0.581   0.558   0.546   0.540   0.561   0.588   0.570   0.564   0.550   0.548   0.556   0.558   0.542   0.603   0.582   0.595   0.580   0.595   0.561   0.570   0.595   0.579   0.587   0.564   0.539   0.579   0.582   0.595   0.512   0.493   0.496   0.489   0.518   0.499   0.521   0.484   0.518   0.511   0.502   0.499   0.533   0.586   0.492   0.487   0.512   0.544   0.505   0.520   0.514   0.517   0.523   0.527   0.532   0.544   0.548   0.558   0.573   0.606   0.573   0.623   0.577   0.611   0.615   0.579   0.577   0.546   0.576   0.570   0.540   0.553   0.548   0.611   0.615   0.615   0.601   0.622   0.636   0.567   0.569   0.566   0.591   0.605   0.525   0.520   0.549   0.509   0.537   0.575   0.560   0.553   0.548   0.603   0.602   0.570   0.572   0.618   0.647   0.620   0.544   0.590   0.601   0.573   0.517   0.579   0.597   0.608   0.598   0.599   0.549   0.546   0.548   0.582   0.606   0.627   0.654   0.653   0.631   0.648   0.632   0.621   0.624   0.595   0.557   0.564   0.543   0.544   0.558   0.548   0.525   0.448   0.474   0.507   0.546   0.542   0.551   0.565   0.567   0.582   0.603   0.570   0.544   0.525   0.548   0.568   0.560   0.556   0.527   0.588   0.543   0.526   0.553   0.571   0.606
   289.30    0.584   0.613   0.649   0.671   0.627   0.637   0.621   0.596   0.632   0.629   0.579   0.549   0.507   0.585   0.526   0.549   0.529   0.508   0.518   0.519   0.519   0.492   0.491   0.466   0.463   0.501   0.513   0.554   0.532   0.519   0.554   0.582   0.563   0.587   0.581   0.634   0.645   0.574   0.541   0.561   0.556   0.545   0.542   0.542   0.559   0.575   0.566   0.571   0.577   0.543   0.560   0.556   0.581   0.610   0.597   0.598   0.560   0.571   0.534   0.544   0.565   0.594   0.559   0.600   0.569   0.582   0.570   0.553   0.520   0.479   0.495   0.510   0.517   0.500   0.527   0.534   0.517   0.494   0.515   0.548   0.552   0.598   0.568   0.537   0.517   0.513   0.503   0.507   0.535   0.527   0.538   0.544   0.506   0.551   0.510   0.559   0.564   0.582   0.598   0.583   0.591   0.579   0.584   0.574   0.579   0.533   0.536   0.532   0.567   0.568   0.538   0.585   0.629   0.620   0.608   0.627   0.608   0.594   0.536   0.539   0.546   0.564   0.559   0.525   0.511   0.507   0.525   0.582   0.559   0.545   0.567   0.597   0.559   0.595   0.597   0.599   0.633   0.573   0.554   0.567   0.540   0.537   0.539   0.531   0.555   0.606   0.558   0.574   0.574   0.568   0.550   0.596   0.589   0.603   0.654   0.594   0.615   0.651   0.630   0.635   0.598   0.589   0.557   0.515   0.515   0.546   0.574   0.566   0.544   0.504   0.469   0.487   0.506   0.542   0.531   0.551   0.580   0.601   0.628   0.584   0.549   0.545   0.576   0.579   0.557   0.554   0.568   0.578   0.566   0.533   0.537   0.553   0.600
   280.00    0.627   0.656   0.647   0.643   0.630   0.637   0.586   0.590   0.583   0.575   0.536   0.566   0.566   0.585   0.586   0.575   0.560   0.527   0.527   0.499   0.504   0.476   0.448   0.447   0.490   0.540   0.546   0.526   0.516   0.525   0.520   0.546   0.567   0.583   0.593   0.624   0.617   0.598   0.509   0.517   0.546   0.527   0.500   0.485   0.524   0.534   0.517   0.562   0.573   0.553   0.543   0.551   0.570   0.576   0.611   0.636   0.588   0.552   0.506   0.554   0.580   0.564   0.611   0.583   0.603   0.619   0.604   0.562   0.526   0.522   0.514   0.526   0.522   0.477   0.522   0.509   0.507   0.515   0.515   0.544   0.585   0.597   0.573   0.583   0.553   0.538   0.537   0.513   0.516   0.499   0.493   0.522   0.500   0.517   0.536   0.566   0.593   0.597   0.556   0.565   0.518   0.579   0.550   0.565   0.555   0.532   0.530   0.534   0.558   0.596   0.591   0.629   0.658   0.614   0.615   0.601   0.593   0.608   0.520   0.548   0.561   0.498   0.547   0.558   0.531   0.516   0.578   0.600   0.565   0.543   0.603   0.577   0.565   0.574   0.597   0.593   0.570   0.570   0.556   0.559   0.589   0.551   0.510   0.512   0.531   0.577   0.609   0.584   0.570   0.569   0.545   0.578   0.574   0.583   0.606   0.582   0.616   0.609   0.603   0.609   0.606   0.615   0.583   0.542   0.516   0.553   0.574   0.530   0.521   0.520   0.510   0.512   0.517   0.513   0.547   0.622   0.649   0.660   0.627   0.619   0.584   0.529   0.573   0.592   0.580   0.545   0.542   0.586   0.559   0.571   0.562   0.589   0.593
   270.70    0.608   0.641   0.625   0.641   0.633   0.597   0.594   0.541   0.557   0.561   0.550   0.561   0.563   0.558   0.575   0.567   0.548   0.514   0.507   0.502   0.498   0.495   0.473   0.468   0.490   0.525   0.522   0.511   0.515   0.524   0.529   0.528   0.528   0.564   0.602   0.634   0.577   0.569   0.561   0.524   0.515   0.521   0.524   0.546   0.555   0.550   0.508   0.536   0.564   0.553   0.535   0.539   0.530   0.536   0.569   0.574   0.588   0.559   0.534   0.529   0.558   0.567   0.567   0.598   0.584   0.596   0.610   0.590   0.555   0.548   0.535   0.509   0.518   0.529   0.507   0.503   0.496   0.502   0.537   0.560   0.583   0.595   0.576   0.548   0.543   0.496   0.499   0.547   0.525   0.491   0.480   0.480   0.476   0.508   0.504   0.516   0.536   0.520   0.549   0.533   0.539   0.537   0.556   0.574   0.567   0.577   0.585   0.570   0.563   0.589   0.588   0.570   0.642   0.666   0.593   0.606   0.595   0.605   0.539   0.580   0.511   0.526   0.507   0.559   0.581   0.572   0.556   0.560   0.594   0.601   0.602   0.568   0.580   0.566   0.578   0.610   0.569   0.550   0.510   0.523   0.550   0.522   0.496   0.502   0.540   0.571   0.552   0.557   0.540   0.518   0.546   0.560   0.562   0.565   0.537   0.562   0.618   0.611   0.603   0.632   0.613   0.587   0.601   0.573   0.528   0.545   0.546   0.544   0.511   0.505   0.498   0.484   0.534   0.546   0.580   0.595   0.658   0.677   0.653   0.581   0.563   0.580   0.587   0.599   0.548   0.579   0.560   0.566   0.586   0.584   0.596   0.609   0.593
   261.40    0.604   0.610   0.597   0.592   0.636   0.620   0.606   0.597   0.557   0.545   0.560   0.572   0.535   0.556   0.550   0.531   0.544   0.503   0.520   0.515   0.497   0.457   0.481   0.516   0.527   0.515   0.555   0.520   0.549   0.527   0.512   0.521   0.562   0.535   0.580   0.611   0.598   0.534   0.544   0.522   0.512   0.490   0.508   0.554   0.534   0.527   0.547   0.513   0.522   0.504   0.585   0.565   0.540   0.565   0.564   0.548   0.544   0.548   0.517   0.479   0.511   0.550   0.565   0.560   0.572   0.561   0.532   0.516   0.542   0.551   0.562   0.521   0.559   0.495   0.510   0.493   0.512   0.494   0.563   0.551   0.593   0.638   0.592   0.571   0.563   0.555   0.515   0.493   0.501   0.492   0.505   0.462   0.477   0.471   0.495   0.512   0.556   0.486   0.532   0.566   0.553   0.566   0.547   0.560   0.555   0.574   0.610   0.581   0.573   0.568   0.561   0.586   0.610   0.641   0.603   0.620   0.617   0.611   0.573   0.615   0.551   0.530   0.553   0.546   0.568   0.549   0.562   0.570   0.603   0.607   0.575   0.593   0.570   0.600   0.580   0.609   0.545   0.564   0.564   0.569   0.539   0.565   0.507   0.545   0.555   0.559   0.559   0.558   0.568   0.546   0.554   0.540   0.539   0.539   0.548   0.595   0.621   0.611   0.593   0.601   0.573   0.556   0.562   0.592   0.519   0.501   0.544   0.494   0.508   0.499   0.538   0.552   0.563   0.586   0.601   0.615   0.635   0.654   0.636   0.602   0.604   0.602   0.591   0.587   0.536   0.540   0.543   0.535   0.523   0.555   0.563   0.597   0.589
   252.10    0.573   0.597   0.586   0.545   0.615   0.601   0.630   0.623   0.568   0.536   0.563   0.572   0.566   0.532   0.528   0.515   0.539   0.491   0.528   0.481   0.473   0.477   0.492   0.513   0.520   0.499   0.496   0.519   0.513   0.531   0.531   0.488   0.524   0.550   0.587   0.602   0.598   0.560   0.548   0.566   0.546   0.496   0.526   0.558   0.547   0.570   0.574   0.564   0.546   0.512   0.530   0.520   0.544   0.553   0.588   0.593   0.566   0.556   0.517   0.505   0.511   0.541   0.551   0.560   0.544   0.539   0.510   0.507   0.509   0.495   0.555   0.552   0.531   0.515   0.499   0.525   0.546   0.556   0.562   0.584   0.640   0.607   0.603   0.543   0.567   0.568   0.542   0.521   0.459   0.481   0.482   0.468   0.491   0.489   0.463   0.499   0.522   0.539   0.566   0.570   0.595   0.560   0.583   0.553   0.579   0.587   0.634   0.604   0.603   0.579   0.583   0.593   0.625   0.608   0.589   0.590   0.625   0.625   0.574   0.570   0.580   0.548   0.544   0.602   0.621   0.567   0.585   0.584   0.559   0.584   0.595   0.588   0.567   0.549   0.579   0.575   0.589   0.559   0.582   0.540   0.524   0.557   0.555   0.588   0.557   0.544   0.596   0.605   0.593   0.595   0.601   0.572   0.538   0.541   0.534   0.586   0.623   0.612   0.562   0.593   0.539   0.497   0.526   0.587   0.555   0.509   0.546   0.540   0.538   0.516   0.543   0.595   0.603   0.585   0.617   0.577   0.607   0.643   0.612   0.640   0.618   0.577   0.590   0.576   0.556   0.543   0.556   0.512   0.546   0.551   0.540   0.556   0.584
   242.80    0.569   0.574   0.557   0.566   0.597   0.609   0.620   0.572   0.549   0.537   0.539   0.561   0.545   0.557   0.515   0.529   0.511   0.443   0.487   0.496   0.481   0.467   0.456   0.482   0.519   0.530   0.502   0.514   0.516   0.542   0.533   0.536   0.533   0.553   0.560   0.602   0.606   0.595   0.540   0.582   0.563   0.515   0.491   0.491   0.517   0.540   0.586   0.575   0.529   0.515   0.498   0.495   0.491   0.536   0.527   0.555   0.526   0.519   0.516   0.500   0.497   0.515   0.543   0.540   0.527   0.532   0.536   0.497   0.553   0.566   0.563   0.537   0.563   0.547   0.553   0.506   0.526   0.552   0.554   0.610   0.646   0.606   0.588   0.588   0.552   0.564   0.541   0.502   0.486   0.468   0.475   0.505   0.505   0.518   0.497   0.543   0.545   0.532   0.539   0.576   0.625   0.594   0.575   0.664   0.599   0.635   0.617   0.675   0.636   0.593   0.636   0.597   0.584   0.603   0.585   0.591   0.595   0.605   0.591   0.589   0.597   0.563   0.583   0.585   0.611   0.540   0.540   0.578   0.559   0.550   0.569   0.556   0.572   0.566   0.563   0.593   0.587   0.562   0.564   0.572   0.590   0.590   0.561   0.567   0.601   0.598   0.627   0.573   0.583   0.640   0.618   0.621   0.580   0.530   0.531   0.538   0.595   0.639   0.615   0.574   0.535   0.563   0.562   0.569   0.537   0.538   0.557   0.555   0.572   0.550   0.591   0.558   0.597   0.599   0.603   0.603   0.637   0.688   0.623   0.641   0.610   0.583   0.630   0.580   0.610   0.599   0.586   0.594   0.561   0.564   0.569   0.572   0.550
   233.50    0.533   0.565   0.584   0.588   0.616   0.604   0.550   0.547   0.519   0.504   0.488   0.537   0.528   0.539   0.520   0.517   0.475   0.483   0.480   0.523   0.538   0.502   0.451   0.459   0.473   0.507   0.500   0.532   0.515   0.521   0.571   0.562   0.585   0.564   0.590   0.628   0.631   0.593   0.564   0.551   0.572   0.536   0.514   0.497   0.525   0.555   0.556   0.548   0.502   0.446   0.439   0.479   0.472   0.529   0.529   0.543   0.522   0.525   0.513   0.544   0.523   0.525   0.516   0.540   0.552   0.560   0.546   0.547   0.544   0.548   0.550   0.583   0.571   0.584   0.550   0.531   0.519   0.477   0.528   0.580   0.624   0.610   0.598   0.553   0.533   0.530   0.537   0.527   0.523   0.571   0.561   0.504   0.495   0.567   0.546   0.562   0.553   0.515   0.555   0.589   0.642   0.623   0.617   0.630   0.625   0.628   0.619   0.622   0.641   0.633   0.631   0.577   0.602   0.608   0.564   0.597   0.591   0.583   0.572   0.568   0.552   0.525   0.540   0.551   0.588   0.566   0.552   0.581   0.543   0.550   0.554   0.586   0.572   0.555   0.546   0.546   0.542   0.572   0.603   0.574   0.578   0.617   0.565   0.623   0.634   0.598   0.607   0.575   0.613   0.623   0.593   0.595   0.580   0.591   0.564   0.566   0.602   0.615   0.615   0.569   0.586   0.546   0.558   0.554   0.547   0.546   0.543   0.512   0.554   0.579   0.591   0.574   0.563   0.575   0.619   0.642   0.663   0.672   0.676   0.634   0.650   0.601   0.607   0.590   0.587   0.602   0.606   0.587   0.576   0.595   0.611   0.580   0.559
   224.20    0.544   0.608   0.604   0.653   0.591   0.602   0.572   0.540   0.496   0.500   0.530   0.501   0.529   0.523   0.504   0.500   0.494   0.467   0.492   0.511   0.480   0.516   0.462   0.436   0.448   0.464   0.479   0.530   0.535   0.547   0.542   0.535   0.537   0.534   0.615   0.629   0.642   0.588   0.558   0.593   0.539   0.539   0.525   0.540   0.520   0.501   0.560   0.520   0.484   0.469   0.494   0.472   0.493   0.495   0.512   0.511   0.520   0.513   0.546   0.564   0.505   0.536   0.557   0.534   0.545   0.541   0.549   0.528   0.546   0.584   0.572   0.558   0.587   0.599   0.575   0.546   0.521   0.488   0.525   0.560   0.579   0.616   0.573   0.546   0.569   0.550   0.546   0.527   0.548   0.558   0.551   0.515   0.513   0.507   0.567   0.561   0.567   0.541   0.599   0.627   0.634   0.676   0.672   0.621   0.660   0.640   0.631   0.600   0.629   0.609   0.616   0.630   0.603   0.599   0.585   0.569   0.569   0.570   0.551   0.602   0.588   0.596   0.580   0.601   0.583   0.616   0.613   0.585   0.568   0.551   0.567   0.595   0.571   0.561   0.550   0.558   0.548   0.554   0.618   0.606   0.604   0.609   0.622   0.615   0.613   0.574   0.561   0.516   0.548   0.581   0.602   0.564   0.598   0.612   0.588   0.569   0.575   0.598   0.595   0.625   0.609   0.587   0.579   0.501   0.524   0.545   0.560   0.510   0.512   0.528   0.586   0.601   0.564   0.569   0.591   0.595   0.625   0.659   0.666   0.649   0.579   0.566   0.556   0.586   0.611   0.608   0.594   0.584   0.586   0.582   0.593   0.565   0.494
   214.90    0.591   0.629   0.657   0.635   0.595   0.566   0.576   0.544   0.539   0.516   0.531   0.507   0.492   0.536   0.498   0.545   0.545   0.483   0.511   0.511   0.495   0.488   0.456   0.460   0.448   0.464   0.477   0.557   0.548   0.538   0.576   0.546   0.514   0.535   0.582   0.569   0.604   0.619   0.621   0.591   0.604   0.551   0.538   0.530   0.555   0.512   0.500   0.510   0.483   0.477   0.454   0.485   0.498   0.509   0.508   0.536   0.513   0.531   0.533   0.521   0.556   0.547   0.556   0.517   0.515   0.534   0.542   0.520   0.539   0.595   0.620   0.636   0.579   0.574   0.563   0.524   0.535   0.549   0.507   0.506   0.537   0.552   0.541   0.524   0.506   0.528   0.532   0.555   0.559   0.559   0.495   0.508   0.506   0.508   0.564   0.547   0.568   0.574   0.611   0.622   0.606   0.656   0.638   0.625   0.631   0.644   0.662   0.664   0.594   0.620   0.604   0.608   0.608   0.570   0.587   0.520   0.561   0.558   0.601   0.603   0.588   0.571   0.585   0.608   0.592   0.589   0.595   0.591   0.551   0.584   0.543   0.572   0.572   0.587   0.582   0.596   0.542   0.567   0.622   0.576   0.580   0.592   0.615   0.609   0.588   0.520   0.532   0.542   0.568   0.587   0.589   0.536   0.578   0.590   0.611   0.596   0.592   0.604   0.608   0.616   0.586   0.568   0.551   0.566   0.511   0.528   0.532   0.538   0.559   0.551   0.592   0.594   0.602   0.601   0.596   0.546   0.606   0.629   0.653   0.654   0.591   0.562   0.570   0.601   0.601   0.609   0.597   0.562   0.591   0.590   0.606   0.556   0.520
   205.60    0.618   0.670   0.626   0.611   0.552   0.541   0.542   0.534   0.575   0.546   0.545   0.550   0.523   0.505   0.482   0.535   0.501   0.525   0.527   0.457   0.480   0.473   0.454   0.453   0.443   0.441   0.520   0.562   0.610   0.629   0.595   0.563   0.538   0.566   0.587   0.561   0.564   0.596   0.575   0.568   0.601   0.595   0.523   0.545   0.548   0.480   0.494   0.500   0.464   0.451   0.456   0.461   0.513   0.525   0.542   0.533   0.536   0.540   0.534   0.510   0.518   0.535   0.519   0.533   0.591   0.547   0.559   0.560   0.573   0.622   0.624   0.639   0.612   0.604   0.585   0.572   0.559   0.524   0.528   0.515   0.541   0.548   0.515   0.500   0.526   0.513   0.534   0.537   0.514   0.515   0.520   0.500   0.551   0.543   0.549   0.527   0.602   0.582   0.619   0.642   0.595   0.618   0.629   0.598   0.611   0.647   0.685   0.703   0.685   0.672   0.692   0.661   0.591   0.589   0.524   0.561   0.579   0.582   0.589   0.613   0.601   0.620   0.630   0.633   0.648   0.628   0.603   0.597   0.597   0.608   0.595   0.597   0.571   0.576   0.580   0.580   0.566   0.526   0.586   0.576   0.577   0.583   0.602   0.535   0.535   0.492   0.487   0.492   0.528   0.596   0.614   0.559   0.581   0.631   0.629   0.654   0.655   0.657   0.623   0.612   0.577   0.566   0.565   0.533   0.501   0.527   0.519   0.531   0.530   0.534   0.580   0.600   0.612   0.640   0.606   0.574   0.603   0.610   0.619   0.637   0.631   0.566   0.611   0.595   0.564   0.557   0.586   0.567   0.571   0.583   0.580   0.564   0.523
   196.30    0.670   0.626   0.593   0.572   0.569   0.550   0.572   0.561   0.596   0.584   0.541   0.510   0.544   0.523   0.500   0.546   0.524   0.521   0.504   0.490   0.528   0.480   0.484   0.486   0.464   0.487   0.536   0.548   0.586   0.576   0.564   0.543   0.559   0.567   0.559   0.612   0.561   0.555   0.616   0.572   0.600   0.604   0.571   0.549   0.495   0.501   0.518   0.474   0.477   0.490   0.479   0.495   0.514   0.528   0.539   0.536   0.547   0.548   0.545   0.548   0.526   0.515   0.516   0.536   0.553   0.608   0.580   0.567   0.572   0.617   0.605   0.625   0.609   0.592   0.566   0.523   0.520   0.523   0.509   0.510   0.534   0.525   0.509   0.535   0.527   0.525   0.537   0.497   0.491   0.516   0.510   0.502   0.518   0.551   0.556   0.553   0.620   0.607   0.638   0.619   0.575   0.629   0.605   0.636   0.636   0.653   0.652   0.699   0.687   0.673   0.670   0.627   0.622   0.623   0.545   0.570   0.620   0.630   0.590   0.610   0.610   0.636   0.624   0.635   0.628   0.661   0.649   0.662   0.610   0.598   0.585   0.570   0.587   0.586   0.600   0.607   0.573   0.583   0.569   0.596   0.555   0.557   0.565   0.507   0.503   0.475   0.487   0.522   0.552   0.599   0.622   0.624   0.606   0.586   0.654   0.684   0.670   0.651   0.622   0.579   0.566   0.560   0.562   0.560   0.534   0.541   0.532   0.553   0.536   0.537   0.617   0.629   0.657   0.672   0.647   0.609   0.602   0.582   0.604   0.604   0.606   0.566   0.585   0.584   0.583   0.579   0.554   0.512   0.553   0.556   0.565   0.550   0.541
   187.00    0.651   0.619   0.559   0.599   0.587   0.571   0.586   0.554   0.547   0.532   0.521   0.519   0.514   0.478   0.495   0.495   0.512   0.511   0.482   0.467   0.470   0.482   0.505   0.497   0.495   0.500   0.532   0.553   0.541   0.566   0.585   0.574   0.584   0.587   0.584   0.587   0.584   0.584   0.639   0.605   0.619   0.606   0.571   0.535   0.486   0.488   0.483   0.470   0.450   0.470   0.498   0.479   0.502   0.525   0.542   0.518   0.532   0.560   0.535   0.559   0.563   0.558   0.549   0.567   0.570   0.600   0.616   0.582   0.583   0.604   0.592   0.604   0.603   0.549   0.539   0.498   0.531   0.501   0.528   0.542   0.559   0.541   0.544   0.537   0.518   0.515   0.518   0.495   0.526   0.513   0.527   0.512   0.522   0.576   0.603   0.570   0.624   0.602   0.621   0.560   0.595   0.592   0.628   0.625   0.621   0.643   0.658   0.646   0.650   0.661   0.625   0.629   0.612   0.588   0.560   0.526   0.580   0.599   0.602   0.614   0.613   0.646   0.635   0.648   0.662   0.647   0.638   0.679   0.652   0.625   0.591   0.593   0.575   0.570   0.596   0.609   0.579   0.579   0.555   0.600   0.575   0.535   0.582   0.532   0.499   0.493   0.482   0.526   0.535   0.555   0.567   0.587   0.600   0.615   0.681   0.683   0.673   0.617   0.641   0.601   0.541   0.536   0.555   0.548   0.554   0.538   0.568   0.576   0.581   0.549   0.621   0.644   0.612   0.658   0.622   0.597   0.577   0.571   0.562   0.548   0.584   0.548   0.560   0.547   0.570   0.550   0.556   0.519   0.574   0.597   0.578   0.554   0.531
   177.70    0.605   0.551   0.561   0.584   0.587   0.562   0.569   0.582   0.575   0.527   0.541   0.566   0.508   0.479   0.509   0.528   0.520   0.508   0.508   0.453   0.502   0.473   0.506   0.513   0.514   0.534   0.544   0.546   0.572   0.598   0.578   0.594   0.564   0.590   0.579   0.544   0.558   0.622   0.608   0.548   0.590   0.574   0.542   0.563   0.515   0.528   0.512   0.505   0.484   0.479   0.459   0.510   0.526   0.519   0.508   0.541   0.543   0.545   0.532   0.566   0.600   0.619   0.617   0.602   0.593   0.605   0.590   0.592   0.593   0.594   0.615   0.548   0.548   0.548   0.545   0.535   0.526   0.529   0.579   0.537   0.550   0.545   0.534   0.580   0.562   0.544   0.525   0.519   0.492   0.509   0.496   0.569   0.555   0.601   0.569   0.578   0.605   0.602   0.613   0.578   0.592   0.604   0.645   0.629   0.609   0.597   0.588   0.625   0.636   0.638   0.638   0.593   0.567   0.551   0.570   0.570   0.550   0.535   0.572   0.585   0.608   0.616   0.615   0.597   0.624   0.648   0.623   0.667   0.671   0.661   0.607   0.571   0.578   0.552   0.615   0.601   0.623   0.546   0.577   0.586   0.588   0.553   0.558   0.530   0.522   0.506   0.499   0.493   0.523   0.545   0.558   0.580   0.606   0.587   0.630   0.638   0.651   0.619   0.602   0.579   0.553   0.532   0.523   0.558   0.597   0.572   0.563   0.603   0.603   0.551   0.574   0.595   0.591   0.633   0.615   0.602   0.607   0.593   0.597   0.599   0.567   0.569   0.554   0.552   0.567   0.527   0.535   0.515   0.553   0.605   0.629   0.610   0.545
   168.40    0.566   0.554   0.545   0.548   0.582   0.588   0.574   0.588   0.570   0.546   0.526   0.550   0.511   0.484   0.490   0.527   0.515   0.530   0.486   0.515   0.544   0.537   0.515   0.553   0.547   0.581   0.565   0.588   0.601   0.602   0.588   0.582   0.600   0.602   0.550   0.544   0.583   0.591   0.604   0.549   0.592   0.561   0.573   0.522   0.533   0.556   0.565   0.490   0.494   0.450   0.442   0.490   0.528   0.536   0.511   0.484   0.528   0.553   0.589   0.612   0.608   0.638   0.626   0.605   0.595   0.577   0.570   0.582   0.584   0.566   0.583   0.573   0.557   0.571   0.561   0.544   0.556   0.567   0.587   0.587   0.560   0.561   0.563   0.558   0.530   0.566   0.562   0.558   0.541   0.520   0.490   0.568   0.581   0.594   0.553   0.545   0.576   0.558   0.567   0.583   0.579   0.610   0.616   0.598   0.591   0.585   0.575   0.633   0.628   0.610   0.631   0.582   0.569   0.581   0.597   0.579   0.592   0.593   0.601   0.582   0.581   0.571   0.569   0.580   0.583   0.595   0.577   0.636   0.617   0.664   0.616   0.575   0.593   0.589   0.551   0.566   0.603   0.568   0.603   0.603   0.546   0.540   0.521   0.527   0.510   0.536   0.533   0.510   0.518   0.533   0.502   0.567   0.557   0.558   0.595   0.591   0.592   0.608   0.583   0.590   0.545   0.553   0.537   0.569   0.561   0.622   0.578   0.605   0.557   0.578   0.603   0.577   0.586   0.571   0.584   0.544   0.550   0.555   0.581   0.616   0.584   0.554   0.551   0.563   0.560   0.549   0.552   0.555   0.567   0.614   0.647   0.573   0.567
   159.10    0.573   0.566   0.549   0.569   0.589   0.609   0.594   0.572   0.573   0.568   0.567   0.574   0.546   0.565   0.558   0.551   0.530   0.505   0.532   0.523   0.512   0.502   0.488   0.509   0.565   0.611   0.626   0.604   0.596   0.631   0.595   0.566   0.622   0.604   0.573   0.560   0.582   0.563   0.579   0.577   0.556   0.543   0.519   0.503   0.512   0.547   0.557   0.482   0.485   0.478   0.486   0.517   0.492   0.520   0.515   0.509   0.540   0.593   0.592   0.596   0.638   0.595   0.616   0.623   0.631   0.609   0.603   0.580   0.538   0.585   0.604   0.574   0.583   0.610   0.587   0.556   0.565   0.565   0.618   0.629   0.580   0.576   0.571   0.541   0.503   0.571   0.591   0.595   0.550   0.524   0.543   0.583   0.592   0.580   0.595   0.604   0.574   0.574   0.532   0.575   0.578   0.568   0.571   0.565   0.615   0.613   0.602   0.622   0.619   0.596   0.616   0.619   0.568   0.571   0.574   0.606   0.588   0.628   0.611   0.620   0.589   0.541   0.528   0.546   0.535   0.538   0.562   0.588   0.614   0.614   0.613   0.632   0.619   0.601   0.572   0.587   0.537   0.565   0.545   0.555   0.611   0.574   0.519   0.522   0.531   0.515   0.522   0.495   0.529   0.500   0.503   0.514   0.534   0.536   0.570   0.549   0.582   0.600   0.559   0.576   0.554   0.578   0.576   0.584   0.633   0.609   0.560   0.572   0.581   0.590   0.568   0.544   0.544   0.544   0.550   0.544   0.517   0.533   0.547   0.579   0.570   0.548   0.531   0.529   0.555   0.527   0.535   0.583   0.586   0.624   0.626   0.562   0.603
   149.80    0.527   0.551   0.556   0.582   0.589   0.559   0.563   0.555   0.595   0.620   0.631   0.606   0.588   0.580   0.597   0.552   0.516   0.541   0.542   0.547   0.541   0.542   0.538   0.536   0.601   0.595   0.611   0.628   0.659   0.631   0.636   0.632   0.616   0.595   0.558   0.553   0.551   0.566   0.554   0.539   0.542   0.555   0.494   0.481   0.484   0.526   0.551   0.493   0.483   0.475   0.488   0.536   0.526   0.517   0.520   0.545   0.530   0.552   0.589   0.627   0.650   0.617   0.608   0.589   0.588   0.609   0.581   0.534   0.526   0.591   0.625   0.607   0.602   0.618   0.581   0.604   0.558   0.555   0.606   0.603   0.595   0.585   0.568   0.509   0.541   0.525   0.516   0.561   0.571   0.575   0.557   0.596   0.605   0.643   0.628   0.577   0.548   0.527   0.559   0.582   0.580   0.572   0.560   0.548   0.578   0.596   0.572   0.607   0.588   0.596   0.631   0.633   0.563   0.579   0.598   0.633   0.627   0.636   0.624   0.636   0.599   0.591   0.560   0.566   0.545   0.553   0.563   0.582   0.604   0.585   0.545   0.570   0.608   0.600   0.564   0.576   0.562   0.510   0.557   0.601   0.570   0.569   0.532   0.509   0.476   0.499   0.489   0.475   0.516   0.530   0.496   0.538   0.495   0.528   0.535   0.570   0.543   0.584   0.589   0.567   0.547   0.578   0.593   0.572   0.582   0.615   0.624   0.588   0.567   0.563   0.529   0.508   0.526   0.514   0.513   0.503   0.501   0.541   0.545   0.544   0.526   0.506   0.481   0.477   0.489   0.514   0.568   0.620   0.636   0.674   0.628   0.583   0.586
   140.50    0.518   0.537   0.541   0.544   0.591   0.584   0.547   0.562   0.613   0.603   0.610   0.601   0.565   0.601   0.611   0.558   0.519   0.537   0.545   0.554   0.568   0.588   0.587   0.585   0.589   0.588   0.606   0.649   0.626   0.680   0.647   0.614   0.578   0.545   0.536   0.555   0.565   0.589   0.586   0.557   0.548   0.529   0.531   0.525   0.521   0.550   0.565   0.527   0.504   0.495   0.488   0.499   0.517   0.543   0.519   0.541   0.549   0.583   0.601   0.622   0.629   0.636   0.588   0.578   0.559   0.602   0.602   0.597   0.609   0.611   0.636   0.635   0.579   0.584   0.620   0.598   0.565   0.588   0.590   0.593   0.635   0.612   0.591   0.560   0.536   0.546   0.524   0.565   0.586   0.607   0.585   0.628   0.630   0.664   0.601   0.570   0.535   0.547   0.577   0.621   0.586   0.581   0.571   0.552   0.576   0.587   0.595   0.607   0.577   0.552   0.585   0.592   0.575   0.564   0.614   0.669   0.625   0.640   0.634   0.597   0.606   0.568   0.547   0.579   0.591   0.596   0.557   0.568   0.552   0.581   0.590   0.552   0.617   0.614   0.577   0.558   0.600   0.547   0.567   0.593   0.588   0.556   0.548   0.507   0.458   0.484   0.522   0.502   0.529   0.506   0.523   0.531   0.536   0.568   0.596   0.575   0.600   0.606   0.608   0.556   0.562   0.586   0.598   0.579   0.574   0.578   0.614   0.597   0.613   0.523   0.526   0.507   0.535   0.479   0.499   0.472   0.502   0.519   0.525   0.535   0.531   0.507   0.527   0.524   0.493   0.517   0.542   0.591   0.641   0.630   0.595   0.574   0.586
   131.20    0.534   0.569   0.535   0.543   0.584   0.575   0.537   0.575   0.565   0.609   0.619   0.606   0.592   0.603   0.548   0.529   0.484   0.520   0.546   0.580   0.607   0.588   0.587   0.610   0.591   0.599   0.603   0.654   0.671   0.710   0.689   0.626   0.602   0.584   0.564   0.591   0.612   0.642   0.576   0.597   0.547   0.556   0.528   0.513   0.565   0.577   0.557   0.545   0.508   0.496   0.484   0.490   0.516   0.543   0.549   0.578   0.551   0.555   0.608   0.593   0.636   0.654   0.630   0.592   0.605   0.610   0.635   0.634   0.672   0.616   0.644   0.615   0.599   0.640   0.636   0.615   0.595   0.600   0.607   0.588   0.625   0.623   0.588   0.565   0.586   0.578   0.546   0.574   0.609   0.577   0.604   0.661   0.625   0.672   0.600   0.596   0.600   0.580   0.558   0.567   0.581   0.628   0.601   0.574   0.556   0.522   0.542   0.528   0.573   0.580   0.543   0.571   0.581   0.571   0.570   0.631   0.648   0.599   0.596   0.598   0.597   0.576   0.583   0.571   0.566   0.557   0.537   0.535   0.558   0.588   0.577   0.605   0.604   0.551   0.564   0.576   0.593   0.590   0.566   0.591   0.542   0.515   0.542   0.521   0.517   0.483   0.504   0.499   0.530   0.515   0.550   0.556   0.584   0.618   0.572   0.561   0.592   0.599   0.612   0.546   0.536   0.559   0.573   0.547   0.546   0.553   0.590   0.634   0.621   0.576   0.534   0.508   0.503   0.475   0.488   0.476   0.495   0.540   0.560   0.517   0.521   0.541   0.517   0.488   0.489   0.533   0.555   0.584   0.604   0.606   0.639   0.629   0.611
   121.90    0.579   0.612   0.579   0.562   0.602   0.575   0.537   0.541   0.567   0.612   0.616   0.584   0.591   0.582   0.538   0.528   0.548   0.527   0.568   0.611   0.606   0.623   0.632   0.658   0.621   0.664   0.644   0.670   0.695   0.677   0.669   0.613   0.605   0.567   0.569   0.598   0.590   0.622   0.608   0.591   0.582   0.574   0.545   0.594   0.567   0.558   0.551   0.493   0.515   0.517   0.501   0.526   0.567   0.607   0.604   0.598   0.588   0.557   0.607   0.605   0.650   0.649   0.588   0.557   0.587   0.594   0.593   0.646   0.621   0.620   0.603   0.600   0.609   0.612   0.617   0.603   0.596   0.576   0.621   0.631   0.598   0.597   0.585   0.565   0.602   0.578   0.604   0.632   0.617   0.582   0.665   0.692   0.679   0.654   0.611   0.593   0.589   0.588   0.605   0.584   0.605   0.595   0.599   0.581   0.538   0.516   0.495   0.502   0.543   0.551   0.575   0.568   0.585   0.628   0.556   0.587   0.628   0.614   0.611   0.596   0.564   0.584   0.595   0.598   0.586   0.615   0.583   0.563   0.573   0.580   0.604   0.617   0.571   0.586   0.593   0.605   0.635   0.630   0.572   0.576   0.548   0.518   0.534   0.549   0.528   0.491   0.497   0.474   0.495   0.518   0.549   0.576   0.581   0.586   0.556   0.566   0.554   0.561   0.556   0.537   0.534   0.528   0.572   0.554   0.536   0.586   0.597   0.603   0.590   0.558   0.532   0.509   0.549   0.530   0.502   0.487   0.486   0.525   0.495   0.522   0.488   0.513   0.501   0.503   0.521   0.539   0.535   0.574   0.594   0.583   0.577   0.583   0.605
   112.60    0.576   0.614   0.609   0.633   0.638   0.577   0.539   0.582   0.576   0.590   0.606   0.590   0.552   0.520   0.551   0.542   0.551   0.551   0.562   0.607   0.603   0.649   0.641   0.664   0.656   0.664   0.661   0.664   0.675   0.635   0.633   0.605   0.568   0.562   0.602   0.653   0.650   0.673   0.651   0.610   0.598   0.592   0.599   0.589   0.599   0.566   0.527   0.532   0.517   0.530   0.537   0.563   0.580   0.603   0.610   0.607   0.622   0.630   0.560   0.581   0.589   0.593   0.582   0.576   0.584   0.608   0.666   0.674   0.637   0.615   0.601   0.611   0.625   0.609   0.578   0.611   0.621   0.626   0.664   0.599   0.605   0.616   0.623   0.569   0.559   0.599   0.610   0.618   0.645   0.618   0.673   0.698   0.649   0.651   0.652   0.609   0.594   0.560   0.561   0.590   0.589   0.578   0.567   0.527   0.520   0.511   0.507   0.475   0.476   0.540   0.540   0.584   0.563   0.560   0.558   0.599   0.590   0.567   0.614   0.598   0.594   0.559   0.587   0.625   0.635   0.622   0.630   0.597   0.575   0.574   0.626   0.630   0.627   0.607   0.622   0.624   0.634   0.613   0.589   0.556   0.536   0.541   0.565   0.535   0.545   0.516   0.521   0.498   0.513   0.533   0.595   0.581   0.602   0.590   0.570   0.585   0.571   0.566   0.559   0.550   0.535   0.521   0.552   0.542   0.570   0.595   0.645   0.614   0.583   0.552   0.546   0.523   0.528   0.551   0.521   0.491   0.500   0.488   0.477   0.483   0.495   0.504   0.524   0.528   0.501   0.504   0.544   0.560   0.565   0.579   0.553   0.567   0.583
   103.30    0.620   0.626   0.609   0.612   0.578   0.565   0.577   0.602   0.536   0.575   0.593   0.590   0.569   0.540   0.530   0.558   0.560   0.584   0.557   0.587   0.638   0.635   0.674   0.658   0.671   0.659   0.650   0.665   0.663   0.625   0.616   0.620   0.584   0.615   0.609   0.656   0.686   0.653   0.670   0.623   0.590   0.575   0.586   0.616   0.559   0.546   0.549   0.565   0.576   0.554   0.551   0.551   0.597   0.596   0.623   0.615   0.609   0.601   0.577   0.582   0.564   0.566   0.575   0.591   0.601   0.631   0.632   0.638   0.624   0.611   0.609   0.627   0.637   0.644   0.574   0.599   0.604   0.640   0.656   0.623   0.600   0.619   0.634   0.639   0.643   0.626   0.650   0.675   0.645   0.657   0.643   0.660   0.674   0.674   0.630   0.596   0.622   0.586   0.564   0.564   0.580   0.563   0.569   0.496   0.500   0.479   0.507   0.488   0.472   0.508   0.513   0.535   0.549   0.586   0.562   0.598   0.571   0.555   0.590   0.547   0.564   0.573   0.573   0.610   0.602   0.609   0.597   0.612   0.575   0.579   0.622   0.618   0.645   0.657   0.634   0.607   0.639   0.595   0.604   0.546   0.529   0.583   0.611   0.562   0.549   0.509   0.536   0.499   0.514   0.577   0.598   0.609   0.585   0.593   0.559   0.578   0.567   0.595   0.616   0.589   0.560   0.572   0.584   0.575   0.535   0.589   0.585   0.603   0.590   0.578   0.558   0.562   0.571   0.573   0.515   0.528   0.495   0.457   0.460   0.503   0.514   0.527   0.487   0.520   0.522   0.540   0.507   0.534   0.547   0.573   0.583   0.580   0.575
    94.00    0.594   0.591   0.576   0.630   0.597   0.565   0.539   0.573   0.590   0.529   0.561   0.543   0.565   0.535   0.520   0.544   0.570   0.613   0.633   0.583   0.599   0.639   0.638   0.673   0.646   0.673   0.656   0.685   0.675   0.624   0.576   0.595   0.608   0.611   0.614   0.672   0.645   0.650   0.668   0.649   0.585   0.551   0.589   0.599   0.571   0.540   0.532   0.508   0.565   0.550   0.542   0.541   0.610   0.600   0.611   0.586   0.597   0.604   0.601   0.562   0.557   0.592   0.574   0.593   0.642   0.635   0.608   0.587   0.576   0.573   0.585   0.611   0.615   0.601   0.589   0.630   0.627   0.663   0.695   0.700   0.658   0.644   0.647   0.681   0.679   0.686   0.678   0.669   0.647   0.651   0.632   0.644   0.636   0.637   0.600   0.593   0.556   0.575   0.570   0.586   0.575   0.555   0.526   0.508   0.476   0.499   0.487   0.508   0.500   0.495   0.546   0.530   0.563   0.545   0.539   0.549   0.593   0.542   0.518   0.545   0.566   0.557   0.568   0.579   0.562   0.566   0.592   0.602   0.584   0.624   0.612   0.626   0.651   0.642   0.621   0.598   0.635   0.660   0.629   0.607   0.590   0.595   0.585   0.595   0.565   0.558   0.536   0.557   0.536   0.581   0.614   0.649   0.598   0.554   0.556   0.568   0.598   0.654   0.621   0.587   0.580   0.548   0.562   0.554   0.555   0.589   0.573   0.607   0.596   0.559   0.544   0.580   0.564   0.575   0.540   0.527   0.533   0.483   0.516   0.482   0.480   0.497   0.514   0.537   0.530   0.512   0.545   0.515   0.577   0.546   0.547   0.565   0.554
    84.70    0.568   0.572   0.610   0.610   0.609   0.572   0.552   0.541   0.582   0.557   0.544   0.544   0.539   0.510   0.524   0.575   0.566   0.563   0.599   0.603   0.594   0.577   0.607   0.658   0.662   0.696   0.686   0.674   0.662   0.614   0.592   0.582   0.599   0.604   0.614   0.667   0.660   0.644   0.645   0.623   0.607   0.583   0.586   0.593   0.584   0.572   0.565   0.530   0.538   0.573   0.541   0.587   0.648   0.610   0.617   0.620   0.582   0.583   0.585   0.583   0.582   0.569   0.596   0.592   0.638   0.619   0.602   0.597   0.570   0.576   0.571   0.560   0.589   0.585   0.573   0.640   0.680   0.692   0.726   0.668   0.659   0.645   0.654   0.703   0.706   0.714   0.650   0.656   0.654   0.600   0.592   0.591   0.631   0.626   0.624   0.584   0.541   0.567   0.541   0.525   0.567   0.548   0.522   0.492   0.490   0.512   0.492   0.489   0.484   0.497   0.511   0.541   0.507   0.512   0.505   0.539   0.552   0.564   0.527   0.528   0.562   0.573   0.554   0.527   0.528   0.535   0.529   0.554   0.557   0.550   0.572   0.619   0.608   0.646   0.634   0.610   0.629   0.654   0.654   0.620   0.630   0.611   0.626   0.597   0.575   0.570   0.579   0.571   0.551   0.570   0.602   0.650   0.617   0.555   0.547   0.571   0.585   0.618   0.610   0.596   0.594   0.563   0.589   0.563   0.555   0.549   0.558   0.612   0.591   0.597   0.593   0.528   0.538   0.547   0.529   0.515   0.510   0.544   0.567   0.530   0.513   0.508   0.521   0.502   0.553   0.545   0.563   0.573   0.558   0.588   0.570   0.545   0.584
    75.40    0.565   0.587   0.609   0.647   0.617   0.576   0.529   0.520   0.542   0.568   0.556   0.551   0.565   0.527   0.531   0.546   0.535   0.549   0.581   0.625   0.584   0.535   0.607   0.617   0.628   0.626   0.609   0.638   0.667   0.643   0.585   0.583   0.577   0.563   0.628   0.633   0.652   0.664   0.659   0.650   0.619   0.623   0.602   0.608   0.614   0.616   0.619   0.563   0.553   0.552   0.557   0.594   0.647   0.613   0.607   0.600   0.602   0.634   0.605   0.582   0.585   0.593   0.604   0.624   0.631   0.624   0.622   0.597   0.603   0.577   0.587   0.600   0.568   0.568   0.635   0.621   0.658   0.726   0.718   0.686   0.679   0.677   0.659   0.667   0.689   0.657   0.655   0.670   0.629   0.626   0.587   0.569   0.608   0.581   0.595   0.605   0.619   0.565   0.531   0.510   0.545   0.538   0.522   0.512   0.472   0.468   0.501   0.484   0.487   0.506   0.515   0.491   0.513   0.503   0.562   0.561   0.537   0.571   0.583   0.587   0.549   0.563   0.539   0.540   0.527   0.566   0.516   0.557   0.572   0.580   0.574   0.569   0.584   0.624   0.581   0.620   0.676   0.669   0.633   0.651   0.659   0.654   0.624   0.594   0.586   0.581   0.582   0.568   0.571   0.596   0.624   0.624   0.630   0.621   0.600   0.581   0.562   0.579   0.577   0.566   0.577   0.590   0.574   0.550   0.544   0.564   0.549   0.604   0.621   0.568   0.568   0.551   0.516   0.535   0.542   0.506   0.504   0.534   0.517   0.527   0.530   0.561   0.518   0.546   0.547   0.591   0.599   0.587   0.587   0.577   0.606   0.611   0.608
    66.10    0.593   0.558   0.632   0.634   0.609   0.611   0.526   0.516   0.511   0.534   0.513   0.530   0.532   0.553   0.573   0.540   0.515   0.533   0.590   0.592   0.589   0.549   0.581   0.559   0.607   0.622   0.616   0.617   0.619   0.671   0.647   0.635   0.609   0.595   0.605   0.645   0.626   0.643   0.652   0.674   0.646   0.655   0.620   0.630   0.606   0.587   0.610   0.559   0.532   0.522   0.554   0.575   0.594   0.631   0.619   0.552   0.591   0.626   0.616   0.600   0.593   0.588   0.574   0.626   0.631   0.606   0.630   0.582   0.553   0.573   0.621   0.596   0.573   0.564   0.596   0.658   0.665   0.691   0.692   0.687   0.650   0.686   0.697   0.711   0.711   0.678   0.640   0.658   0.649   0.626   0.606   0.577   0.605   0.604   0.621   0.618   0.624   0.573   0.580   0.545   0.515   0.534   0.517   0.505   0.501   0.480   0.493   0.510   0.494   0.476   0.505   0.534   0.489   0.528   0.539   0.554   0.570   0.597   0.579   0.569   0.526   0.544   0.526   0.562   0.567   0.545   0.549   0.546   0.586   0.589   0.564   0.570   0.586   0.607   0.611   0.625   0.634   0.645   0.610   0.637   0.690   0.649   0.606   0.602   0.600   0.604   0.592   0.586   0.580   0.595   0.602   0.630   0.658   0.617   0.591   0.603   0.593   0.587   0.547   0.576   0.566   0.585   0.586   0.547   0.527   0.555   0.558   0.607   0.588   0.571   0.581   0.546   0.526   0.491   0.491   0.472   0.523   0.533   0.512   0.507   0.536   0.538   0.562   0.583   0.596   0.605   0.613   0.582   0.589   0.531   0.577   0.588   0.607
    56.80    0.598   0.620   0.608   0.589   0.547   0.575   0.602   0.540   0.503   0.518   0.520   0.513   0.529   0.581   0.560   0.522   0.510   0.543   0.578   0.563   0.580   0.564   0.578   0.574   0.566   0.595   0.591   0.619   0.619   0.633   0.644   0.602   0.619   0.642   0.637   0.643   0.637   0.655   0.661   0.680   0.620   0.597   0.593   0.616   0.571   0.563   0.558   0.553   0.562   0.509   0.512   0.542   0.562   0.559   0.598   0.595   0.611   0.608   0.576   0.554   0.547   0.548   0.580   0.603   0.617   0.632   0.602   0.603   0.558   0.563   0.559   0.564   0.545   0.581   0.590   0.634   0.702   0.679   0.683   0.684   0.649   0.663   0.694   0.720   0.704   0.706   0.666   0.701   0.641   0.646   0.646   0.623   0.620   0.601   0.595   0.575   0.611   0.641   0.608   0.590   0.565   0.525   0.512   0.516   0.545   0.516   0.529   0.528   0.524   0.517   0.490   0.497   0.491   0.520   0.542   0.552   0.555   0.559   0.606   0.568   0.577   0.560   0.551   0.579   0.592   0.564   0.573   0.536   0.567   0.601   0.592   0.598   0.551   0.623   0.628   0.682   0.623   0.637   0.631   0.636   0.649   0.627   0.620   0.650   0.628   0.641   0.608   0.569   0.571   0.574   0.610   0.572   0.629   0.619   0.641   0.637   0.627   0.573   0.555   0.563   0.564   0.601   0.571   0.532   0.530   0.540   0.538   0.580   0.554   0.582   0.576   0.553   0.502   0.500   0.499   0.484   0.495   0.506   0.507   0.487   0.539   0.547   0.559   0.602   0.594   0.607   0.620   0.594   0.574   0.556   0.556   0.550   0.571
    47.50    0.596   0.616   0.625   0.573   0.589   0.602   0.588   0.595   0.524   0.522   0.552   0.536   0.536   0.579   0.549   0.525   0.555   0.567   0.541   0.541   0.555   0.569   0.539   0.547   0.545   0.549   0.548   0.610   0.619   0.618   0.638   0.644   0.619   0.647   0.678   0.653   0.648   0.639   0.622   0.652   0.611   0.609   0.580   0.595   0.577   0.570   0.557   0.558   0.517   0.527   0.544   0.565   0.539   0.583   0.591   0.592   0.615   0.655   0.632   0.556   0.543   0.550   0.569   0.591   0.608   0.618   0.595   0.581   0.524   0.553   0.523   0.542   0.564   0.568   0.592   0.609   0.659   0.682   0.699   0.678   0.660   0.653   0.699   0.690   0.695   0.685   0.691   0.716   0.676   0.669   0.650   0.639   0.586   0.583   0.592   0.604   0.626   0.623   0.607   0.597   0.572   0.551   0.548   0.540   0.519   0.506   0.522   0.512   0.509   0.519   0.550   0.514   0.489   0.488   0.538   0.568   0.549   0.577   0.593   0.571   0.577   0.601   0.608   0.627   0.568   0.589   0.550   0.528   0.563   0.549   0.529   0.561   0.588   0.642   0.617   0.653   0.654   0.680   0.642   0.653   0.651   0.646   0.653   0.644   0.663   0.627   0.590   0.585   0.562   0.594   0.571   0.583   0.623   0.613   0.623   0.607   0.585   0.550   0.507   0.511   0.509   0.540   0.543   0.510   0.476   0.529   0.528   0.558   0.550   0.576   0.580   0.541   0.514   0.501   0.494   0.480   0.483   0.473   0.508   0.514   0.531   0.549   0.582   0.592   0.620   0.590   0.606   0.595   0.551   0.558   0.520   0.526   0.551
    38.20    0.579   0.617   0.629   0.591   0.593   0.568   0.606   0.588   0.534   0.522   0.562   0.565   0.559   0.558   0.528   0.525   0.529   0.568   0.537   0.541   0.565   0.548   0.555   0.531   0.557   0.574   0.563   0.586   0.625   0.644   0.675   0.660   0.651   0.631   0.680   0.655   0.648   0.647   0.667   0.655   0.599   0.573   0.599   0.567   0.587   0.598   0.559   0.537   0.536   0.536   0.538   0.538   0.572   0.582   0.613   0.610   0.636   0.675   0.623   0.585   0.542   0.537   0.544   0.522   0.565   0.577   0.604   0.587   0.511   0.513   0.537   0.566   0.573   0.578   0.576   0.554   0.599   0.665   0.664   0.632   0.668   0.696   0.676   0.667   0.692   0.716   0.700   0.723   0.657   0.676   0.689   0.647   0.585   0.568   0.595   0.592   0.572   0.609   0.602   0.594   0.558   0.549   0.495   0.501   0.517   0.509   0.510   0.521   0.494   0.499   0.532   0.531   0.527   0.575   0.551   0.562   0.585   0.621   0.601   0.598   0.584   0.629   0.635   0.604   0.569   0.586   0.586   0.549   0.553   0.555   0.491   0.548   0.571   0.579   0.603   0.625   0.639   0.668   0.630   0.623   0.642   0.660   0.649   0.660   0.682   0.612   0.601   0.545   0.564   0.582   0.540   0.584   0.591   0.618   0.598   0.577   0.542   0.536   0.496   0.472   0.511   0.499   0.525   0.505   0.477   0.501   0.543   0.580   0.570   0.565   0.580   0.543   0.513   0.497   0.518   0.476   0.469   0.458   0.493   0.496   0.577   0.562   0.606   0.579   0.577   0.622   0.604   0.592   0.530   0.552   0.522   0.525   0.535
    28.90    0.574   0.568   0.587   0.565   0.564   0.578   0.596   0.625   0.532   0.536   0.582   0.594   0.593   0.547   0.550   0.519   0.535   0.543   0.558   0.539   0.552   0.575   0.546   0.523   0.554   0.584   0.571   0.596   0.611   0.597   0.637   0.631   0.638   0.652   0.651   0.650   0.651   0.619   0.647   0.661   0.634   0.603   0.599   0.612   0.594   0.574   0.586   0.562   0.566   0.509   0.506   0.526   0.533   0.586   0.625   0.600   0.633   0.614   0.600   0.590   0.569   0.567   0.560   0.577   0.557   0.558   0.593   0.555   0.574   0.579   0.566   0.577   0.592   0.567   0.564   0.570   0.636   0.663   0.640   0.679   0.674   0.702   0.708   0.678   0.694   0.702   0.687   0.695   0.660   0.680   0.689   0.617   0.642   0.624   0.576   0.598   0.551   0.573   0.572   0.579   0.594   0.555   0.551   0.526   0.508   0.501   0.477   0.476   0.492   0.516   0.526   0.582   0.560   0.590   0.543   0.528   0.610   0.610   0.622   0.628   0.624   0.627   0.594   0.562   0.526   0.566   0.626   0.577   0.602   0.608   0.556   0.562   0.537   0.569   0.592   0.572   0.556   0.597   0.607   0.609   0.627   0.643   0.649   0.643   0.645   0.628   0.576   0.557   0.572   0.575   0.540   0.589   0.579   0.598   0.638   0.555   0.542   0.519   0.490   0.448   0.461   0.517   0.524   0.516   0.494   0.494   0.534   0.541   0.565   0.578   0.569   0.545   0.539   0.512   0.459   0.480   0.495   0.509   0.480   0.501   0.550   0.535   0.574   0.565   0.576   0.593   0.613   0.532   0.530   0.529   0.527   0.546   0.558
    19.60    0.613   0.597   0.549   0.564   0.562   0.582   0.591   0.555   0.579   0.537   0.588   0.596   0.575   0.576   0.519   0.509   0.527   0.575   0.540   0.575   0.555   0.527   0.505   0.525   0.516   0.534   0.530   0.569   0.582   0.587   0.627   0.638   0.614   0.645   0.728   0.675   0.631   0.641   0.633   0.599   0.603   0.590   0.633   0.637   0.632   0.617   0.573   0.563   0.566   0.523   0.522   0.514   0.542   0.565   0.561   0.598   0.578   0.600   0.586   0.550   0.556   0.558   0.586   0.597   0.598   0.549   0.574   0.602   0.601   0.613   0.598   0.589   0.630   0.601   0.580   0.589   0.652   0.645   0.641   0.652   0.680   0.668   0.649   0.646   0.708   0.708   0.731   0.695   0.692   0.672   0.708   0.633   0.618   0.613   0.620   0.604   0.548   0.556   0.556   0.591   0.585   0.557   0.538   0.551   0.511   0.457   0.473   0.492   0.488   0.517   0.551   0.571   0.608   0.613   0.592   0.615   0.618   0.596   0.625   0.656   0.628   0.627   0.561   0.548   0.576   0.589   0.565   0.581   0.559   0.533   0.551   0.550   0.565   0.568   0.595   0.570   0.613   0.562   0.570   0.597   0.617   0.596   0.643   0.660   0.638   0.640   0.607   0.585   0.564   0.532   0.554   0.529   0.560   0.572   0.640   0.570   0.544   0.488   0.434   0.457   0.460   0.515   0.498   0.535   0.519   0.516   0.519   0.521   0.538   0.593   0.582   0.543   0.513   0.489   0.513   0.528   0.513   0.488   0.486   0.512   0.536   0.549   0.551   0.587   0.589   0.617   0.610   0.609   0.561   0.580   0.562   0.581   0.590
    10.30    0.588   0.575   0.577   0.584   0.597   0.570   0.558   0.574   0.581   0.567   0.569   0.570   0.572   0.556   0.552   0.545   0.539   0.574   0.550   0.552   0.508   0.515   0.523   0.506   0.534   0.481   0.526   0.528   0.578   0.609   0.641   0.585   0.623   0.647   0.684   0.640   0.624   0.640   0.622   0.638   0.591   0.564   0.627   0.639   0.645   0.603   0.592   0.586   0.552   0.530   0.545   0.556   0.527   0.480   0.524   0.554   0.558   0.568   0.565   0.562   0.526   0.515   0.551   0.581   0.605   0.634   0.600   0.606   0.591   0.630   0.606   0.633   0.627   0.612   0.649   0.607   0.636   0.618   0.647   0.638   0.657   0.665   0.620   0.655   0.664   0.715   0.718   0.703   0.694   0.651   0.666   0.635   0.639   0.611   0.617   0.571   0.578   0.565   0.583   0.591   0.580   0.586   0.580   0.585   0.520   0.508   0.503   0.497   0.527   0.563   0.598   0.619   0.639   0.614   0.651   0.617   0.628   0.646   0.633   0.661   0.682   0.657   0.619   0.590   0.569   0.581   0.555   0.577   0.517   0.519   0.512   0.518   0.514   0.520   0.541   0.538   0.565   0.542   0.521   0.577   0.615   0.575   0.618   0.591   0.606   0.600   0.610   0.571   0.538   0.526   0.572   0.600   0.586   0.569   0.600   0.591   0.544   0.488   0.479   0.440   0.451   0.478   0.492   0.490   0.529   0.501   0.483   0.541   0.528   0.554   0.532   0.495   0.505   0.510   0.543   0.523   0.513   0.496   0.485   0.523   0.516   0.531   0.594   0.579   0.591   0.549   0.550   0.577   0.599   0.594   0.566   0.590   0.619
     1.00    0.573   0.579   0.549   0.567   0.592   0.584   0.550   0.568   0.600   0.574   0.591   0.598   0.594   0.587   0.620   0.599   0.566   0.557   0.533   0.553   0.505   0.504   0.503   0.507   0.484   0.507   0.495   0.540   0.570   0.619   0.613   0.592   0.570   0.605   0.629   0.615   0.618   0.591   0.607   0.591   0.579   0.590   0.636   0.625   0.636   0.590   0.592   0.583   0.571   0.573   0.570   0.584   0.556   0.518   0.530   0.521   0.529   0.533   0.580   0.560   0.511   0.520   0.512   0.576   0.609   0.637   0.613   0.596   0.603   0.641   0.636   0.643   0.639   0.637   0.646   0.632   0.663   0.645   0.626   0.680   0.678   0.678   0.683   0.662   0.651   0.698   0.718   0.705   0.636   0.628   0.650   0.603   0.642   0.624   0.559   0.592   0.566   0.593   0.593   0.597   0.583   0.595   0.570   0.579   0.541   0.538   0.569   0.552   0.527   0.576   0.582   0.588   0.637   0.645   0.681   0.665   0.687   0.701   0.681   0.676   0.642   0.633   0.658   0.624   0.580   0.571   0.609   0.591   0.586   0.595   0.591   0.519   0.526   0.550   0.508   0.501   0.528   0.526   0.544   0.589   0.615   0.607   0.600   0.626   0.617   0.648   0.578   0.558   0.515   0.532   0.558   0.603   0.603   0.559   0.575   0.605   0.554   0.521   0.499   0.488   0.485   0.518   0.513   0.530   0.540   0.550   0.558   0.553   0.514   0.532   0.502   0.503   0.503   0.505   0.479   0.507   0.492   0.476   0.508   0.526   0.508   0.542   0.560   0.576   0.560   0.541   0.550   0.563   0.562   0.562   0.569   0.605   0.596

   Height   Standard deviation at grid points for the v component:
   354.40    0.451   0.472   0.451   0.452   0.458   0.437   0.442   0.448   0.462   0.472   0.464   0.452   0.470   0.464   0.476   0.466   0.432   0.399   0.423   0.449   0.444   0.462   0.428   0.440   0.455   0.442   0.444   0.446   0.458   0.463   0.451   0.464   0.445   0.426   0.421   0.441   0.450   0.457   0.464   0.457   0.477   0.476   0.464   0.468   0.442   0.449   0.458   0.442   0.406   0.428   0.404   0.415   0.449   0.408   0.425   0.444   0.424   0.465   0.469   0.457   0.491   0.500   0.522   0.492   0.499   0.511   0.484   0.476   0.498   0.477   0.493   0.473   0.464   0.473   0.481   0.456   0.483   0.459   0.424   0.411   0.452   0.456   0.426   0.394   0.393   0.391   0.395   0.419   0.418   0.428   0.463   0.480   0.475   0.470   0.459   0.472   0.445   0.438   0.438   0.456   0.460   0.463   0.454   0.471   0.480   0.469   0.480   0.489   0.522   0.482   0.482   0.493   0.470   0.465   0.483   0.454   0.438   0.433   0.407   0.406   0.416   0.434   0.416   0.427   0.430   0.416   0.436   0.446   0.453   0.460   0.441   0.417   0.413   0.428   0.428   0.444   0.452   0.468   0.481   0.473   0.491   0.453   0.460   0.463   0.468   0.459   0.471   0.442   0.450   0.455   0.442   0.455   0.486   0.492   0.479   0.449   0.471   0.464   0.497   0.519   0.484   0.530   0.530   0.530   0.532   0.529   0.522   0.501   0.461   0.476   0.451   0.476   0.436   0.470   0.456   0.447   0.412   0.460   0.469   0.430   0.433   0.421   0.453   0.436   0.449   0.448   0.467   0.472   0.490   0.472   0.479   0.490   0.490
   345.10    0.457   0.459   0.459   0.444   0.458   0.440   0.447   0.456   0.476   0.492   0.486   0.464   0.492   0.488   0.472   0.462   0.446   0.420   0.419   0.437   0.454   0.449   0.442   0.458   0.447   0.444   0.438   0.432   0.444   0.449   0.441   0.459   0.458   0.439   0.429   0.437   0.431   0.429   0.444   0.463   0.478   0.466   0.459   0.451   0.458   0.441   0.438   0.404   0.390   0.392   0.395   0.418   0.417   0.425   0.410   0.443   0.437   0.459   0.446   0.460   0.486   0.495   0.523   0.506   0.523   0.508   0.506   0.510   0.472   0.493   0.499   0.470   0.467   0.476   0.482   0.471   0.483   0.441   0.450   0.445   0.455   0.452   0.439   0.414   0.417   0.415   0.414   0.425   0.413   0.443   0.447   0.459   0.478   0.457   0.464   0.450   0.440   0.444   0.459   0.442   0.460   0.467   0.466   0.459   0.456   0.461   0.476   0.481   0.504   0.503   0.484   0.492   0.486   0.477   0.474   0.487   0.467   0.425   0.398   0.404   0.423   0.417   0.442   0.457   0.408   0.414   0.436   0.448   0.462   0.452   0.431   0.432   0.436   0.435   0.434   0.451   0.440   0.456   0.459   0.459   0.500   0.453   0.453   0.470   0.485   0.485   0.453   0.444   0.442   0.468   0.433   0.446   0.461   0.470   0.470   0.459   0.439   0.475   0.483   0.485   0.508   0.511   0.545   0.522   0.511   0.513   0.548   0.521   0.504   0.472   0.458   0.467   0.467   0.441   0.456   0.450   0.435   0.431   0.437   0.437   0.444   0.459   0.449   0.457   0.425   0.455   0.458   0.479   0.507   0.490   0.521   0.511   0.501
   335.80    0.475   0.459   0.437   0.421   0.460   0.458   0.447   0.444   0.462   0.497   0.486   0.453   0.473   0.490   0.476   0.456   0.461   0.451   0.443   0.433   0.473   0.454   0.447   0.448   0.430   0.439   0.445   0.436   0.450   0.463   0.470   0.426   0.450   0.458   0.445   0.453   0.452   0.414   0.429   0.435   0.460   0.463   0.469   0.440   0.445   0.451   0.431   0.408   0.406   0.431   0.419   0.433   0.424   0.414   0.432   0.442   0.440   0.432   0.471   0.456   0.494   0.495   0.509   0.503   0.504   0.493   0.502   0.504   0.509   0.516   0.500   0.485   0.483   0.490   0.472   0.481   0.477   0.455   0.464   0.474   0.443   0.438   0.425   0.389   0.403   0.419   0.428   0.440   0.448   0.426   0.430   0.449   0.475   0.486   0.455   0.447   0.466   0.469   0.448   0.438   0.425   0.449   0.473   0.463   0.445   0.446   0.466   0.476   0.489   0.493   0.475   0.487   0.469   0.468   0.483   0.477   0.462   0.450   0.444   0.443   0.434   0.430   0.460   0.463   0.445   0.442   0.445   0.439   0.452   0.422   0.424   0.438   0.420   0.449   0.461   0.464   0.445   0.471   0.463   0.449   0.452   0.485   0.487   0.463   0.475   0.469   0.436   0.424   0.442   0.454   0.456   0.444   0.436   0.476   0.492   0.468   0.466   0.433   0.465   0.496   0.496   0.498   0.541   0.541   0.522   0.514   0.536   0.507   0.501   0.506   0.489   0.484   0.476   0.473   0.456   0.464   0.432   0.444   0.461   0.467   0.470   0.453   0.435   0.434   0.443   0.454   0.457   0.474   0.514   0.519   0.514   0.516   0.529
   326.50    0.468   0.449   0.462   0.461   0.454   0.438   0.442   0.452   0.474   0.496   0.486   0.482   0.500   0.500   0.485   0.460   0.453   0.438   0.452   0.457   0.437   0.463   0.436   0.458   0.445   0.458   0.428   0.397   0.423   0.431   0.479   0.430   0.434   0.449   0.452   0.444   0.419   0.405   0.429   0.445   0.444   0.463   0.458   0.432   0.417   0.431   0.427   0.416   0.422   0.441   0.415   0.426   0.444   0.448   0.429   0.418   0.433   0.454   0.483   0.510   0.504   0.536   0.527   0.511   0.487   0.495   0.467   0.479   0.477   0.480   0.495   0.475   0.478   0.474   0.481   0.465   0.489   0.443   0.428   0.449   0.435   0.417   0.419   0.402   0.410   0.422   0.426   0.420   0.433   0.430   0.432   0.453   0.458   0.453   0.435   0.438   0.448   0.475   0.436   0.427   0.430   0.454   0.456   0.464   0.490   0.461   0.451   0.464   0.476   0.477   0.491   0.488   0.469   0.477   0.490   0.473   0.438   0.463   0.461   0.431   0.414   0.426   0.451   0.444   0.489   0.455   0.450   0.447   0.466   0.431   0.435   0.426   0.437   0.462   0.467   0.458   0.448   0.461   0.448   0.440   0.450   0.475   0.474   0.468   0.469   0.434   0.460   0.440   0.437   0.456   0.464   0.455   0.456   0.492   0.481   0.471   0.453   0.451   0.468   0.478   0.500   0.528   0.532   0.570   0.542   0.532   0.518   0.523   0.492   0.472   0.483   0.474   0.480   0.464   0.454   0.462   0.457   0.452   0.463   0.481   0.480   0.451   0.424   0.432   0.431   0.469   0.459   0.474   0.484   0.495   0.518   0.519   0.494
[...]
   103.30    0.284   0.283   0.273   0.282   0.286   0.286   0.282   0.281   0.275   0.283   0.290   0.291   0.278   0.281   0.287   0.282   0.284   0.279   0.274   0.276   0.287   0.283   0.276   0.284   0.286   0.287   0.287   0.277   0.276   0.275   0.278   0.272   0.277   0.280   0.277   0.271   0.276   0.283   0.284   0.271   0.271   0.267   0.273   0.281   0.286   0.287   0.293   0.280   0.285   0.287   0.286   0.286   0.285   0.286   0.280   0.288   0.282   0.283   0.291   0.290   0.283   0.282   0.279   0.280   0.273   0.274   0.279   0.291   0.278   0.279   0.277   0.284   0.281   0.282   0.280   0.289   0.290   0.294   0.288   0.284   0.276   0.287   0.283   0.291   0.293   0.296   0.289   0.288   0.288   0.295   0.290   0.286   0.292   0.287   0.286   0.294   0.279   0.280   0.272   0.279   0.280   0.279   0.273   0.276   0.270   0.274   0.271   0.267   0.263   0.281   0.280   0.266   0.279   0.279   0.278   0.278   0.290   0.283   0.277   0.281   0.276   0.270   0.266   0.284   0.287   0.287   0.287   0.281   0.282   0.275   0.277   0.278   0.277   0.267   0.280   0.285   0.283   0.279   0.280   0.293   0.284   0.287   0.294   0.293   0.290   0.289   0.296   0.287   0.285   0.292   0.289   0.298   0.291   0.284   0.295   0.288   0.300   0.286   0.286   0.274   0.284   0.278   0.284   0.294   0.294   0.295   0.297   0.298   0.295   0.300   0.289   0.280   0.288   0.278   0.282   0.281   0.278   0.275   0.281   0.284   0.275   0.279   0.279   0.281   0.283   0.274   0.278   0.284   0.288   0.289   0.302   0.291   0.295
    94.00    0.287   0.288   0.286   0.287   0.286   0.282   0.280   0.284   0.277   0.290   0.284   0.287   0.284   0.275   0.284   0.287   0.283   0.280   0.284   0.279   0.290   0.290   0.280   0.286   0.298   0.284   0.281   0.279   0.278   0.281   0.279   0.278   0.275   0.274   0.284   0.280   0.273   0.276   0.276   0.271   0.258   0.267   0.267   0.262   0.274   0.284   0.296   0.293   0.287   0.286   0.282   0.292   0.289   0.279   0.269   0.284   0.285   0.283   0.284   0.282   0.286   0.284   0.286   0.281   0.278   0.266   0.273   0.286   0.284   0.287   0.291   0.291   0.287   0.273   0.280   0.289   0.282   0.290   0.289   0.284   0.282   0.276   0.285   0.292   0.293   0.294   0.292   0.292   0.299   0.301   0.287   0.284   0.288   0.288   0.274   0.283   0.283   0.280   0.268   0.268   0.277   0.270   0.265   0.266   0.276   0.264   0.265   0.266   0.268   0.277   0.276   0.271   0.277   0.284   0.279   0.275   0.281   0.278   0.274   0.280   0.276   0.277   0.279   0.278   0.283   0.278   0.274   0.268   0.267   0.278   0.270   0.272   0.280   0.271   0.276   0.285   0.290   0.293   0.291   0.287   0.300   0.298   0.294   0.284   0.291   0.292   0.296   0.294   0.290   0.291   0.291   0.295   0.301   0.296   0.298   0.292   0.294   0.290   0.276   0.279   0.279   0.289   0.295   0.289   0.294   0.296   0.282   0.295   0.294   0.287   0.288   0.285   0.291   0.280   0.285   0.286   0.278   0.269   0.275   0.274   0.279   0.280   0.277   0.279   0.280   0.279   0.279   0.278   0.283   0.291   0.293   0.300   0.295
    84.70    0.282   0.267   0.281   0.279   0.281   0.283   0.286   0.286   0.290   0.284   0.296   0.282   0.284   0.282   0.276   0.284   0.283   0.291   0.288   0.282   0.288   0.293   0.288   0.283   0.293   0.288   0.289   0.268   0.283   0.271   0.275   0.272   0.273   0.271   0.272   0.276   0.277   0.278   0.280   0.274   0.257   0.267   0.269   0.276   0.279   0.282   0.284   0.288   0.292   0.288   0.288   0.287   0.282   0.274   0.270   0.278   0.287   0.286   0.279   0.282   0.282   0.277   0.276   0.285   0.290   0.281   0.281   0.278   0.283   0.278   0.280   0.286   0.276   0.278   0.279   0.285   0.294   0.278   0.286   0.281   0.290   0.285   0.287   0.298   0.295   0.294   0.290   0.285   0.294   0.287   0.298   0.280   0.284   0.281   0.282   0.270   0.279   0.271   0.267   0.270   0.272   0.269   0.266   0.267   0.272   0.271   0.276   0.268   0.268   0.277   0.279   0.280   0.277   0.277   0.279   0.277   0.273   0.269   0.279   0.273   0.270   0.280   0.281   0.286   0.278   0.273   0.272   0.273   0.269   0.271   0.277   0.279   0.275   0.281   0.281   0.285   0.291   0.284   0.288   0.293   0.297   0.295   0.296   0.289   0.292   0.290   0.285   0.295   0.298   0.294   0.294   0.293   0.303   0.306   0.293   0.285   0.289   0.285   0.282   0.281   0.282   0.282   0.292   0.287   0.284   0.298   0.294   0.297   0.292   0.289   0.281   0.285   0.284   0.293   0.299   0.296   0.291   0.286   0.276   0.279   0.289   0.290   0.289   0.284   0.279   0.276   0.272   0.280   0.283   0.295   0.293   0.296   0.295
    75.40    0.284   0.275   0.274   0.265   0.277   0.279   0.284   0.292   0.293   0.291   0.294   0.282   0.274   0.285   0.276   0.293   0.292   0.294   0.286   0.285   0.285   0.287   0.292   0.290   0.295   0.291   0.288   0.280   0.284   0.274   0.277   0.284   0.277   0.270   0.271   0.284   0.278   0.282   0.278   0.274   0.272   0.263   0.265   0.280   0.279   0.285   0.290   0.290   0.290   0.285   0.291   0.277   0.275   0.266   0.277   0.288   0.292   0.291   0.291   0.284   0.289   0.284   0.274   0.281   0.280   0.282   0.277   0.277   0.279   0.270   0.282   0.285   0.281   0.284   0.285   0.292   0.298   0.294   0.283   0.283   0.281   0.289   0.298   0.293   0.291   0.294   0.287   0.285   0.284   0.298   0.289   0.292   0.275   0.263   0.267   0.273   0.284   0.279   0.278   0.271   0.272   0.264   0.264   0.257   0.277   0.275   0.279   0.270   0.266   0.271   0.280   0.275   0.276   0.281   0.269   0.276   0.268   0.267   0.277   0.274   0.279   0.276   0.286   0.287   0.289   0.278   0.274   0.278   0.272   0.281   0.278   0.283   0.276   0.282   0.291   0.293   0.290   0.287   0.293   0.294   0.299   0.287   0.295   0.285   0.289   0.281   0.281   0.288   0.282   0.288   0.296   0.299   0.302   0.297   0.290   0.291   0.283   0.276   0.269   0.277   0.276   0.281   0.282   0.277   0.295   0.294   0.291   0.295   0.297   0.290   0.292   0.284   0.289   0.293   0.284   0.287   0.280   0.284   0.281   0.283   0.291   0.280   0.280   0.283   0.279   0.274   0.277   0.271   0.287   0.289   0.293   0.297   0.298
    66.10    0.278   0.273   0.277   0.269   0.279   0.283   0.290   0.289   0.282   0.291   0.277   0.273   0.276   0.287   0.294   0.289   0.297   0.284   0.285   0.283   0.287   0.289   0.285   0.278   0.284   0.299   0.297   0.294   0.287   0.282   0.283   0.286   0.288   0.280   0.281   0.286   0.282   0.274   0.280   0.268   0.257   0.261   0.266   0.268   0.282   0.286   0.287   0.292   0.294   0.288   0.286   0.270   0.272   0.274   0.288   0.286   0.289   0.286   0.294   0.298   0.291   0.285   0.277   0.289   0.282   0.287   0.283   0.276   0.279   0.281   0.284   0.276   0.281   0.287   0.294   0.290   0.293   0.290   0.289   0.291   0.282   0.292   0.292   0.287   0.290   0.291   0.281   0.291   0.284   0.281   0.284   0.278   0.279   0.279   0.268   0.264   0.272   0.272   0.286   0.286   0.281   0.281   0.270   0.262   0.260   0.274   0.274   0.270   0.277   0.275   0.284   0.271   0.274   0.281   0.276   0.272   0.274   0.269   0.274   0.277   0.276   0.277   0.279   0.283   0.280   0.282   0.272   0.269   0.275   0.285   0.288   0.292   0.285   0.291   0.302   0.295   0.286   0.280   0.290   0.292   0.296   0.293   0.283   0.291   0.287   0.279   0.283   0.282   0.282   0.280   0.295   0.305   0.298   0.295   0.295   0.291   0.286   0.280   0.268   0.278   0.272   0.277   0.273   0.279   0.284   0.293   0.287   0.294   0.291   0.291   0.285   0.283   0.289   0.293   0.285   0.283   0.284   0.275   0.287   0.279   0.282   0.281   0.280   0.282   0.276   0.269   0.282   0.287   0.292   0.287   0.281   0.292   0.298
    56.80    0.277   0.276   0.281   0.274   0.296   0.297   0.288   0.287   0.279   0.282   0.286   0.271   0.269   0.281   0.287   0.300   0.297   0.279   0.280   0.275   0.293   0.280   0.279   0.275   0.289   0.295   0.297   0.284   0.281   0.279   0.291   0.281   0.287   0.282   0.285   0.282   0.277   0.278   0.279   0.267   0.258   0.267   0.266   0.273   0.288   0.284   0.284   0.287   0.285   0.280   0.285   0.280   0.278   0.272   0.281   0.285   0.283   0.293   0.289   0.292   0.295   0.282   0.276   0.282   0.284   0.278   0.279   0.274   0.273   0.275   0.285   0.283   0.288   0.288   0.296   0.290   0.291   0.294   0.293   0.288   0.286   0.287   0.287   0.289   0.295   0.293   0.285   0.290   0.286   0.283   0.290   0.281   0.276   0.289   0.281   0.274   0.266   0.274   0.281   0.279   0.282   0.278   0.274   0.270   0.266   0.278   0.286   0.283   0.277   0.265   0.273   0.275   0.267   0.273   0.281   0.274   0.275   0.274   0.274   0.279   0.279   0.278   0.278   0.284   0.281   0.270   0.277   0.275   0.282   0.276   0.283   0.293   0.290   0.302   0.294   0.287   0.294   0.286   0.289   0.290   0.288   0.288   0.287   0.287   0.282   0.282   0.287   0.277   0.280   0.274   0.290   0.301   0.299   0.288   0.294   0.288   0.290   0.282   0.270   0.273   0.275   0.285   0.278   0.279   0.290   0.277   0.284   0.286   0.295   0.286   0.291   0.282   0.282   0.275   0.281   0.289   0.277   0.281   0.281   0.279   0.281   0.274   0.284   0.273   0.262   0.268   0.281   0.288   0.285   0.286   0.282   0.291   0.293
    47.50    0.286   0.290   0.282   0.283   0.288   0.289   0.279   0.286   0.293   0.283   0.281   0.273   0.274   0.279   0.284   0.292   0.287   0.281   0.278   0.280   0.283   0.284   0.292   0.283   0.289   0.290   0.285   0.277   0.285   0.278   0.279   0.281   0.282   0.272   0.284   0.276   0.269   0.269   0.284   0.280   0.271   0.266   0.276   0.277   0.284   0.287   0.276   0.276   0.292   0.287   0.276   0.273   0.281   0.283   0.284   0.291   0.288   0.288   0.293   0.297   0.294   0.284   0.276   0.269   0.278   0.281   0.279   0.287   0.273   0.280   0.279   0.286   0.282   0.288   0.291   0.288   0.294   0.298   0.293   0.289   0.294   0.283   0.284   0.292   0.291   0.289   0.284   0.289   0.285   0.280   0.278   0.278   0.281   0.280   0.280   0.278   0.277   0.277   0.278   0.274   0.285   0.272   0.280   0.273   0.270   0.267   0.271   0.278   0.283   0.279   0.275   0.273   0.265   0.266   0.274   0.276   0.269   0.276   0.285   0.291   0.287   0.294   0.291   0.285   0.280   0.275   0.272   0.273   0.276   0.276   0.288   0.295   0.288   0.291   0.296   0.291   0.296   0.304   0.296   0.287   0.287   0.293   0.304   0.304   0.291   0.289   0.277   0.283   0.285   0.281   0.288   0.299   0.294   0.291   0.281   0.293   0.285   0.285   0.272   0.273   0.272   0.284   0.286   0.289   0.284   0.271   0.277   0.277   0.279   0.280   0.289   0.276   0.275   0.271   0.282   0.285   0.280   0.279   0.276   0.267   0.278   0.274   0.278   0.273   0.276   0.278   0.288   0.286   0.292   0.293   0.285   0.297   0.291
    38.20    0.297   0.291   0.290   0.279   0.275   0.284   0.287   0.288   0.299   0.291   0.284   0.275   0.268   0.280   0.290   0.289   0.284   0.275   0.274   0.275   0.284   0.300   0.294   0.278   0.288   0.285   0.279   0.280   0.284   0.277   0.274   0.291   0.282   0.282   0.278   0.277   0.274   0.271   0.281   0.288   0.279   0.265   0.268   0.270   0.279   0.278   0.268   0.280   0.281   0.288   0.291   0.287   0.283   0.287   0.284   0.289   0.278   0.278   0.292   0.291   0.284   0.281   0.271   0.278   0.274   0.280   0.286   0.287   0.278   0.277   0.281   0.285   0.293   0.288   0.301   0.289   0.285   0.286   0.291   0.293   0.287   0.282   0.279   0.291   0.292   0.288   0.284   0.297   0.285   0.280   0.276   0.268   0.271   0.271   0.271   0.270   0.277   0.281   0.283   0.278   0.269   0.277   0.284   0.274   0.276   0.283   0.283   0.281   0.281   0.282   0.279   0.276   0.268   0.273   0.280   0.282   0.277   0.282   0.285   0.290   0.276   0.285   0.290   0.278   0.272   0.272   0.268   0.282   0.275   0.291   0.285   0.288   0.297   0.296   0.298   0.296   0.300   0.299   0.296   0.285   0.292   0.297   0.306   0.298   0.291   0.289   0.280   0.282   0.290   0.288   0.291   0.292   0.294   0.283   0.279   0.288   0.286   0.299   0.273   0.273   0.278   0.279   0.284   0.291   0.285   0.284   0.291   0.288   0.293   0.283   0.289   0.284   0.287   0.279   0.273   0.288   0.286   0.275   0.275   0.274   0.279   0.287   0.285   0.276   0.267   0.279   0.285   0.289   0.304   0.284   0.291   0.285   0.283
    28.90    0.303   0.300   0.291   0.293   0.281   0.284   0.285   0.280   0.296   0.295   0.288   0.286   0.276   0.276   0.289   0.286   0.281   0.283   0.271   0.279   0.285   0.294   0.289   0.281   0.285   0.283   0.281   0.285   0.291   0.279   0.276   0.289   0.282   0.290   0.289   0.275   0.277   0.280   0.284   0.282   0.284   0.274   0.268   0.273   0.278   0.278   0.271   0.274   0.278   0.290   0.296   0.297   0.298   0.288   0.278   0.282   0.274   0.279   0.282   0.282   0.282   0.279   0.268   0.277   0.272   0.275   0.280   0.283   0.280   0.285   0.290   0.297   0.285   0.291   0.292   0.293   0.286   0.284   0.280   0.276   0.285   0.284   0.282   0.290   0.282   0.286   0.294   0.297   0.285   0.275   0.272   0.274   0.276   0.272   0.265   0.274   0.280   0.280   0.283   0.281   0.267   0.273   0.277   0.269   0.273   0.287   0.280   0.277   0.274   0.279   0.281   0.282   0.280   0.280   0.285   0.284   0.285   0.276   0.274   0.280   0.270   0.284   0.288   0.283   0.275   0.277   0.274   0.279   0.284   0.289   0.293   0.291   0.295   0.289   0.293   0.296   0.293   0.296   0.290   0.286   0.292   0.294   0.303   0.295   0.292   0.302   0.285   0.289   0.284   0.282   0.283   0.284   0.289   0.294   0.277   0.279   0.294   0.290   0.274   0.280   0.276   0.293   0.289   0.304   0.291   0.284   0.288   0.291   0.293   0.292   0.287   0.290   0.282   0.281   0.270   0.283   0.279   0.282   0.282   0.280   0.272   0.286   0.281   0.283   0.277   0.280   0.286   0.293   0.297   0.289   0.291   0.291   0.289
    19.60    0.292   0.297   0.297   0.291   0.290   0.286   0.288   0.289   0.290   0.301   0.289   0.287   0.280   0.275   0.277   0.278   0.290   0.282   0.289   0.284   0.290   0.285   0.288   0.287   0.292   0.288   0.284   0.280   0.284   0.286   0.279   0.289   0.288   0.282   0.280   0.276   0.270   0.279   0.277   0.273   0.276   0.284   0.285   0.289   0.285   0.283   0.276   0.274   0.290   0.299   0.295   0.293   0.297   0.290   0.285   0.277   0.277   0.287   0.285   0.272   0.271   0.271   0.275   0.263   0.280   0.280   0.277   0.280   0.292   0.294   0.288   0.279   0.278   0.292   0.293   0.294   0.289   0.281   0.273   0.279   0.281   0.272   0.287   0.276   0.288   0.288   0.295   0.293   0.287   0.280   0.276   0.272   0.273   0.273   0.277   0.275   0.281   0.276   0.283   0.271   0.278   0.280   0.280   0.285   0.287   0.290   0.287   0.295   0.285   0.287   0.283   0.284   0.287   0.289   0.291   0.279   0.277   0.271   0.269   0.277   0.279   0.275   0.279   0.276   0.281   0.285   0.277   0.275   0.276   0.288   0.299   0.301   0.297   0.296   0.294   0.296   0.299   0.296   0.308   0.296   0.295   0.294   0.286   0.289   0.298   0.304   0.290   0.283   0.281   0.289   0.291   0.292   0.280   0.292   0.288   0.290   0.291   0.290   0.289   0.285   0.283   0.289   0.292   0.308   0.306   0.301   0.299   0.284   0.279   0.284   0.287   0.284   0.289   0.281   0.270   0.282   0.284   0.284   0.285   0.270   0.274   0.276   0.282   0.283   0.286   0.294   0.292   0.289   0.283   0.288   0.293   0.292   0.286
    10.30    0.289   0.294   0.293   0.292   0.291   0.291   0.280   0.288   0.294   0.299   0.290   0.282   0.284   0.286   0.288   0.283   0.286   0.290   0.291   0.295   0.291   0.296   0.296   0.284   0.284   0.296   0.285   0.282   0.282   0.273   0.289   0.291   0.298   0.295   0.287   0.287   0.280   0.288   0.282   0.281   0.282   0.285   0.286   0.286   0.291   0.294   0.291   0.286   0.291   0.295   0.283   0.293   0.286   0.286   0.290   0.289   0.284   0.288   0.286   0.286   0.275   0.268   0.267   0.274   0.276   0.280   0.280   0.280   0.283   0.293   0.286   0.289   0.288   0.299   0.300   0.290   0.285   0.281   0.273   0.279   0.283   0.276   0.276   0.269   0.286   0.290   0.292   0.295   0.294   0.281   0.276   0.275   0.275   0.276   0.274   0.275   0.285   0.273   0.280   0.286   0.275   0.284   0.284   0.285   0.288   0.280   0.284   0.298   0.294   0.294   0.286   0.283   0.282   0.275   0.289   0.285   0.269   0.265   0.269   0.276   0.282   0.278   0.275   0.273   0.278   0.262   0.274   0.281   0.290   0.296   0.300   0.305   0.296   0.300   0.307   0.303   0.297   0.297   0.299   0.302   0.289   0.284   0.296   0.299   0.294   0.295   0.297   0.289   0.281   0.285   0.296   0.289   0.285   0.288   0.290   0.282   0.296   0.298   0.289   0.294   0.290   0.283   0.291   0.301   0.298   0.291   0.289   0.279   0.276   0.282   0.282   0.282   0.279   0.282   0.284   0.279   0.288   0.280   0.273   0.269   0.284   0.286   0.286   0.282   0.296   0.288   0.284   0.287   0.284   0.289   0.296   0.291   0.290
     1.00    0.284   0.284   0.295   0.293   0.294   0.284   0.278   0.282   0.286   0.283   0.290   0.285   0.282   0.288   0.290   0.285   0.287   0.286   0.293   0.289   0.289   0.291   0.291   0.288   0.288   0.285   0.281   0.280   0.283   0.277   0.272   0.286   0.286   0.294   0.286   0.281   0.274   0.288   0.288   0.280   0.286   0.281   0.286   0.287   0.287   0.286   0.288   0.291   0.288   0.288   0.289   0.280   0.282   0.282   0.280   0.280   0.280   0.280   0.296   0.292   0.284   0.269   0.272   0.278   0.288   0.280   0.283   0.283   0.284   0.289   0.290   0.287   0.295   0.295   0.298   0.290   0.285   0.283   0.284   0.287   0.282   0.286   0.271   0.266   0.282   0.285   0.289   0.294   0.288   0.273   0.277   0.286   0.270   0.273   0.283   0.276   0.286   0.273   0.273   0.279   0.277   0.283   0.288   0.289   0.280   0.288   0.292   0.293   0.285   0.277   0.275   0.277   0.286   0.273   0.274   0.278   0.278   0.278   0.268   0.274   0.280   0.284   0.279   0.284   0.281   0.272   0.267   0.263   0.279   0.289   0.288   0.294   0.282   0.291   0.296   0.290   0.290   0.297   0.289   0.288   0.291   0.288   0.297   0.303   0.284   0.291   0.294   0.287   0.289   0.294   0.298   0.293   0.285   0.293   0.285   0.294   0.285   0.298   0.298   0.293   0.284   0.290   0.300   0.294   0.289   0.290   0.277   0.271   0.279   0.287   0.277   0.279   0.286   0.282   0.287   0.278   0.280   0.281   0.284   0.283   0.274   0.275   0.285   0.290   0.289   0.281   0.276   0.284   0.287   0.289   0.297   0.292   0.292

   Mean standard deviation across all grid points:
      u component:    0.570 m/s
      v component:    0.458 m/s
      w component:    0.283 m/s


U-component (X) statistics from the interpolated hub point:

   Mean =   9.7063 m/s
   TI   =   6.2565 %


Processing complete.  2.11799E+05 CPU seconds used.
