
This summary file was generated by TurbSim (from OpenFAST-v3.5.3) on 20-Apr-2025 at 04:55:59.


Runtime Options:

-228636811  Random seed #1
    RANLUX  Type of random number generator
         F  Output binary HH turbulence parameters?
         F  Output formatted turbulence parameters?
         F  Output AeroDyn HH files?
         T  Output AeroDyn FF files?
         F  Output BLADED FF files?
         F  Output tower data?
         F  Output HAWC FF files?
         F  Output formatted FF files?
         T  Output coherent turbulence time step file?
 0 -  NONE  IEC turbulence models scaled to exact specified standard deviation


Turbine/Model Specifications:

        37  Vertical grid-point matrix dimension
        35  Horizontal grid-point matrix dimension
     0.250  Time step [seconds]
   900.000  Analysis time [seconds]
   900.000  Usable output time [seconds]
    89.350  Hub height [m]
   167.400  Grid height [m]
   158.100  Grid width [m]
     0.000  Vertical flow angle [degrees]
     0.000  Horizontal flow angle [degrees]


Meteorological Boundary Conditions:

    TIMESR  User-input time series spectral model
       N/A  IEC standard
       N/A  IEC turbulence characteristic
       N/A  IEC turbulence type
       N/A  IEC Extreme Turbulence Model (ETM) "c" parameter [m/s]
       PL   Wind profile type
    90.000  Reference height [m]
    10.000  Reference wind speed [m/s]
       N/A  Jet height [m]
     0.120  Power law exponent
     0.030  Surface roughness length [m]


Non-IEC Meteorological Boundary Conditions:

    45.000  Site latitude [degrees]
     0.050  Gradient Richardson number
     0.480  Friction or shear velocity [m/s]
       N/A  Mixing layer depth [m]
       N/A  Mean hub u'w' Reynolds stress
       N/A  Mean hub u'v' Reynolds stress
       N/A  Mean hub v'w' Reynolds stress


Spatial Coherence Models:

       IEC  u-component coherence model
       IEC  v-component coherence model
       IEC  w-component coherence model
(   12.000, 0.353E-03)  u-component coherence parameters
(   12.000, 0.353E-03)  v-component coherence parameters
(   12.000, 0.353E-03)  w-component coherence parameters
       N/A  Coherence exponent


Coherent Turbulence Scaling Parameters:

.\EventData
            Name of the path containing the coherent turbulence data files
       les  Type of coherent turbulence data files
     1.000  Disturbance scale (ratio of wave height to rotor diameter)
     0.500  Fractional location of tower centerline from right
     0.500  Fractional location of hub height from the bottom of the dataset
    30.000  Minimum start time for coherent structures [seconds]


Profiles from User-Defined Time-Series Input:

  Height   Wind Speed   Horizontal Angle   Vertical Angle
   (m)        (m/s)          (deg)              (deg)    
  ------   ----------   ----------------   --------------
   94.00      10.00          -0.63               -0.00


You have requested that the following file(s) be generated:

   /kfs3/scratch/agupta/Projects/RL_Incubator/FinalRuns_Veer/Seed4/./FFSim_Seed4/Cond00_v10.0_PL0.12_TI6.0/Case1_wdirp02/Seed_1/TurbSim/HighT10.bts (AeroDyn/TurbSim full-field wind file)


Turbulence Simulation Scaling Parameter Summary:

   Turbulence model used                            =  User-input time series
   Gradient Richardson number                       =    0.050
   Monin-Obukhov (M-O) z/L parameter                =    0.067
   Monin-Obukhov (M-O) length scale                 = 1340.250 m
   Mean wind speed at hub height                    =    9.991 m/s

   Wind profile type                                =  Power law
   Power law exponent                               =    0.120
   Mean shear across rotor disk                     =    0.019 (m/s)/m
   Assumed rotor diameter                           =  158.100 m
   Surface roughness length                         =    0.030 m

   Nyquist frequency of turbulent wind field        =    2.000 Hz

   Number of time steps in the FFT                  =     3600
   Number of time steps output                      =     3600
   Number of points simulated                       =     1296


Mean Flow Angles:

   Vertical   =   0.0 degrees
   Horizontal =   0.0 degrees

Mean Wind Speed Profile:

   Height    Wind Speed   Horizontal Angle  Vertical Angle  U-comp (X)   V-comp (Y)   W-comp (Z)
     (m)        (m/s)         (degrees)       (degrees)       (m/s)        (m/s)        (m/s)   
   ------    ----------   ----------------  --------------  ----------   ----------   ----------
    168.4       10.78            0.00            0.00         10.78         0.00         0.00
    163.7       10.74            0.00            0.00         10.74         0.00         0.00
    159.1       10.71            0.00            0.00         10.71         0.00         0.00
    154.4       10.67            0.00            0.00         10.67         0.00         0.00
    149.8       10.63            0.00            0.00         10.63         0.00         0.00
    145.1       10.59            0.00            0.00         10.59         0.00         0.00
    140.5       10.55            0.00            0.00         10.55         0.00         0.00
    135.8       10.51            0.00            0.00         10.51         0.00         0.00
    131.2       10.46            0.00            0.00         10.46         0.00         0.00
    126.5       10.42            0.00            0.00         10.42         0.00         0.00
    121.9       10.37            0.00            0.00         10.37         0.00         0.00
    117.2       10.32            0.00            0.00         10.32         0.00         0.00
    112.6       10.27            0.00            0.00         10.27         0.00         0.00
    107.9       10.22            0.00            0.00         10.22         0.00         0.00
    103.3       10.17            0.00            0.00         10.17         0.00         0.00
     98.6       10.11            0.00            0.00         10.11         0.00         0.00
     94.0       10.05            0.00            0.00         10.05         0.00         0.00
     89.3        9.99            0.00            0.00          9.99         0.00         0.00
     84.7        9.93            0.00            0.00          9.93         0.00         0.00
     80.0        9.86            0.00            0.00          9.86         0.00         0.00
     75.4        9.79            0.00            0.00          9.79         0.00         0.00
     70.7        9.72            0.00            0.00          9.72         0.00         0.00
     66.1        9.64            0.00            0.00          9.64         0.00         0.00
     61.4        9.55            0.00            0.00          9.55         0.00         0.00
     56.8        9.46            0.00            0.00          9.46         0.00         0.00
     52.1        9.37            0.00            0.00          9.37         0.00         0.00
     47.5        9.26            0.00            0.00          9.26         0.00         0.00
     42.8        9.15            0.00            0.00          9.15         0.00         0.00
     38.2        9.02            0.00            0.00          9.02         0.00         0.00
     33.5        8.88            0.00            0.00          8.88         0.00         0.00
     28.9        8.73            0.00            0.00          8.73         0.00         0.00
     24.2        8.54            0.00            0.00          8.54         0.00         0.00
     19.6        8.33            0.00            0.00          8.33         0.00         0.00
     14.9        8.06            0.00            0.00          8.06         0.00         0.00
     10.3        7.71            0.00            0.00          7.71         0.00         0.00
      5.6        7.17            0.00            0.00          7.17         0.00         0.00
      1.0        5.83            0.00            0.00          5.83         0.00         0.00


Harvested Random Seeds after Generation of the Random Numbers:

     65026800 K 1
            0 K 2


Hub-Height Simulated Turbulence Statistical Summary:

   Type of Wind        Min (m/s)   Mean (m/s)    Max (m/s)  Sigma (m/s)       TI (%)
   ----------------    ---------   ----------    ---------  -----------       ------
   Longitudinal (u)         8.73         9.99        11.44        0.472        4.729
   Lateral (v)             -1.39         0.00         1.62        0.458        4.586
   Vertical (w)            -0.85         0.00         0.84        0.268        2.686
   U component              8.73         9.99        11.44        0.472        4.729
   V component             -1.39         0.00         1.62        0.458        4.586
   W component             -0.85         0.00         0.84        0.268        2.686
   Horizontal (U&V)         8.73        10.00        11.44        0.474        4.739
   Total                    8.76        10.01        11.44        0.474        4.739

                       Min Reynolds     Mean Reynolds    Max Reynolds    Correlation
   Product             Stress (m/s)^2   Stress (m/s)^2   Stress (m/s)^2  Coefficient
   ----------------    --------------   --------------   --------------  -----------
   u'w'                     -0.875             0.005             0.911         0.036
   u'v'                     -1.033            -0.026             1.182        -0.122
   v'w'                     -0.654             0.001             0.807         0.008


   Friction Velocity (Ustar)  =      0.067 m/s
   Maximum Instantaneous TKE  =      1.384 (m/s)^2
   Maximum Instantaneous CTKE =      0.635 (m/s)^2


Grid Point Variance Summary:

   Y-coord  -79.05  -74.40  -69.75  -65.10  -60.45  -55.80  -51.15  -46.50  -41.85  -37.20  -32.55  -27.90  -23.25  -18.60  -13.95   -9.30   -4.65    0.00    4.65    9.30   13.95   18.60   23.25   27.90   32.55   37.20   41.85   46.50   51.15   55.80   60.45   65.10   69.75   74.40   79.05

   Height   Standard deviation at grid points for the u component:
   168.40    0.449   0.463   0.483   0.492   0.476   0.459   0.479   0.486   0.488   0.502   0.550   0.564   0.554   0.541   0.545   0.489   0.446   0.448   0.428   0.452   0.476   0.466   0.471   0.468   0.463   0.475   0.490   0.483   0.496   0.518   0.540   0.502   0.505   0.488   0.525
   163.75    0.440   0.448   0.461   0.466   0.479   0.469   0.487   0.481   0.491   0.512   0.538   0.516   0.521   0.515   0.529   0.478   0.473   0.453   0.460   0.468   0.464   0.469   0.459   0.477   0.447   0.479   0.482   0.491   0.489   0.493   0.505   0.488   0.465   0.504   0.534
   159.10    0.450   0.460   0.478   0.477   0.494   0.469   0.478   0.475   0.491   0.509   0.521   0.503   0.487   0.485   0.505   0.458   0.459   0.450   0.464   0.463   0.411   0.435   0.442   0.473   0.462   0.494   0.471   0.437   0.462   0.458   0.477   0.497   0.468   0.489   0.524
   154.45    0.436   0.451   0.465   0.469   0.497   0.472   0.473   0.473   0.464   0.464   0.489   0.507   0.509   0.513   0.478   0.482   0.472   0.459   0.443   0.449   0.439   0.444   0.430   0.439   0.461   0.476   0.476   0.475   0.449   0.453   0.463   0.469   0.493   0.528   0.529
   149.80    0.470   0.483   0.495   0.442   0.460   0.430   0.456   0.455   0.421   0.448   0.463   0.469   0.491   0.483   0.484   0.480   0.471   0.463   0.444   0.462   0.468   0.458   0.449   0.439   0.479   0.461   0.440   0.451   0.424   0.423   0.423   0.452   0.458   0.484   0.517
   145.15    0.452   0.461   0.458   0.471   0.438   0.442   0.435   0.438   0.442   0.448   0.460   0.503   0.489   0.491   0.478   0.489   0.452   0.481   0.484   0.450   0.482   0.474   0.480   0.482   0.486   0.498   0.473   0.439   0.452   0.427   0.435   0.457   0.470   0.486   0.519
   140.50    0.461   0.440   0.452   0.430   0.441   0.438   0.445   0.426   0.419   0.411   0.438   0.482   0.514   0.508   0.514   0.496   0.484   0.520   0.496   0.496   0.495   0.508   0.498   0.540   0.538   0.513   0.482   0.441   0.448   0.465   0.473   0.441   0.445   0.455   0.504
   135.85    0.453   0.469   0.458   0.433   0.438   0.405   0.443   0.441   0.432   0.451   0.460   0.481   0.496   0.481   0.496   0.484   0.488   0.480   0.507   0.518   0.509   0.507   0.514   0.542   0.523   0.517   0.497   0.481   0.470   0.470   0.469   0.499   0.463   0.459   0.492
   131.20    0.444   0.446   0.442   0.422   0.408   0.398   0.416   0.412   0.443   0.469   0.498   0.502   0.507   0.509   0.528   0.510   0.499   0.469   0.477   0.500   0.485   0.504   0.503   0.510   0.533   0.539   0.495   0.498   0.476   0.475   0.504   0.527   0.500   0.503   0.476
   126.55    0.450   0.444   0.449   0.430   0.410   0.422   0.420   0.423   0.465   0.473   0.517   0.546   0.551   0.558   0.552   0.524   0.526   0.490   0.484   0.483   0.488   0.484   0.468   0.513   0.536   0.552   0.516   0.488   0.505   0.508   0.494   0.497   0.469   0.497   0.468
   121.90    0.441   0.447   0.458   0.424   0.419   0.438   0.429   0.453   0.495   0.538   0.512   0.545   0.588   0.594   0.567   0.517   0.504   0.516   0.504   0.511   0.504   0.540   0.513   0.501   0.503   0.532   0.516   0.507   0.528   0.496   0.493   0.490   0.473   0.470   0.505
   117.25    0.426   0.427   0.439   0.449   0.401   0.449   0.437   0.489   0.513   0.529   0.523   0.557   0.595   0.592   0.557   0.536   0.516   0.546   0.560   0.524   0.484   0.506   0.516   0.501   0.512   0.496   0.518   0.487   0.493   0.494   0.511   0.549   0.524   0.527   0.529
   112.60    0.440   0.445   0.428   0.434   0.434   0.444   0.475   0.498   0.505   0.550   0.555   0.579   0.590   0.554   0.573   0.576   0.560   0.545   0.523   0.492   0.463   0.495   0.487   0.491   0.471   0.480   0.491   0.467   0.519   0.497   0.499   0.521   0.513   0.526   0.485
   107.95    0.485   0.494   0.465   0.463   0.449   0.457   0.487   0.503   0.514   0.548   0.571   0.571   0.566   0.585   0.604   0.569   0.584   0.546   0.483   0.444   0.435   0.455   0.475   0.487   0.495   0.466   0.443   0.467   0.516   0.491   0.492   0.533   0.494   0.495   0.495
   103.30    0.468   0.492   0.462   0.486   0.489   0.468   0.474   0.532   0.514   0.538   0.534   0.604   0.575   0.592   0.618   0.548   0.548   0.539   0.498   0.442   0.425   0.436   0.438   0.441   0.454   0.430   0.407   0.463   0.481   0.490   0.506   0.493   0.493   0.477   0.514
    98.65    0.484   0.497   0.511   0.499   0.507   0.479   0.501   0.548   0.522   0.551   0.554   0.612   0.615   0.646   0.637   0.603   0.532   0.512   0.474   0.466   0.405   0.419   0.414   0.431   0.427   0.422   0.421   0.459   0.465   0.426   0.461   0.439   0.449   0.455   0.492
    94.00    0.496   0.511   0.516   0.516   0.520   0.559   0.543   0.549   0.525   0.525   0.607   0.607   0.641   0.650   0.619   0.570   0.519   0.503   0.469   0.442   0.417   0.391   0.411   0.430   0.452   0.419   0.442   0.453   0.453   0.437   0.421   0.412   0.432   0.442   0.473
    89.35    0.459   0.501   0.490   0.524   0.522   0.557   0.590   0.590   0.565   0.574   0.629   0.650   0.664   0.632   0.591   0.548   0.505   0.472   0.456   0.455   0.447   0.426   0.415   0.431   0.447   0.414   0.431   0.435   0.416   0.404   0.428   0.429   0.423   0.398   0.431
    84.70    0.460   0.467   0.511   0.543   0.559   0.593   0.608   0.581   0.591   0.595   0.629   0.620   0.638   0.596   0.549   0.560   0.500   0.504   0.479   0.472   0.480   0.455   0.451   0.418   0.409   0.422   0.414   0.416   0.418   0.413   0.401   0.403   0.398   0.428   0.411
    80.05    0.452   0.475   0.481   0.533   0.545   0.541   0.560   0.619   0.608   0.666   0.624   0.601   0.645   0.654   0.562   0.559   0.516   0.475   0.459   0.432   0.429   0.467   0.461   0.424   0.422   0.418   0.387   0.380   0.410   0.414   0.406   0.407   0.393   0.434   0.455
    75.40    0.511   0.515   0.535   0.516   0.534   0.583   0.611   0.596   0.638   0.673   0.654   0.612   0.665   0.643   0.608   0.559   0.518   0.486   0.474   0.487   0.504   0.499   0.464   0.459   0.404   0.407   0.408   0.420   0.415   0.435   0.429   0.436   0.431   0.437   0.458
    70.75    0.521   0.557   0.598   0.568   0.548   0.585   0.569   0.596   0.620   0.628   0.632   0.615   0.643   0.664   0.615   0.627   0.552   0.554   0.500   0.499   0.518   0.511   0.479   0.463   0.437   0.395   0.407   0.434   0.419   0.442   0.424   0.440   0.445   0.433   0.441
    66.10    0.545   0.559   0.555   0.567   0.569   0.560   0.566   0.541   0.597   0.590   0.608   0.602   0.612   0.602   0.599   0.607   0.600   0.526   0.515   0.520   0.540   0.558   0.520   0.450   0.437   0.407   0.386   0.408   0.407   0.422   0.440   0.425   0.428   0.433   0.435
    61.45    0.577   0.544   0.531   0.551   0.542   0.515   0.507   0.538   0.587   0.573   0.529   0.552   0.557   0.531   0.561   0.577   0.596   0.574   0.575   0.495   0.518   0.520   0.506   0.460   0.445   0.425   0.408   0.413   0.407   0.411   0.422   0.445   0.433   0.450   0.457
    56.80    0.542   0.555   0.534   0.526   0.527   0.552   0.532   0.573   0.581   0.572   0.542   0.511   0.511   0.538   0.517   0.576   0.549   0.576   0.535   0.509   0.494   0.499   0.496   0.454   0.471   0.444   0.419   0.426   0.424   0.429   0.412   0.456   0.439   0.450   0.455
    52.15    0.535   0.550   0.540   0.524   0.511   0.538   0.537   0.546   0.520   0.502   0.498   0.459   0.515   0.498   0.554   0.573   0.557   0.554   0.557   0.516   0.536   0.470   0.470   0.465   0.437   0.413   0.408   0.434   0.418   0.429   0.439   0.435   0.450   0.448   0.441
    47.50    0.550   0.555   0.553   0.539   0.514   0.535   0.521   0.518   0.491   0.476   0.466   0.506   0.501   0.480   0.527   0.562   0.554   0.565   0.514   0.551   0.546   0.477   0.474   0.450   0.425   0.410   0.451   0.439   0.416   0.460   0.477   0.437   0.448   0.451   0.449
    42.85    0.569   0.571   0.559   0.571   0.549   0.576   0.522   0.479   0.503   0.506   0.462   0.503   0.503   0.508   0.505   0.542   0.530   0.496   0.526   0.541   0.515   0.498   0.445   0.424   0.426   0.441   0.446   0.437   0.447   0.426   0.446   0.466   0.445   0.412   0.428
    38.20    0.560   0.606   0.575   0.583   0.562   0.548   0.527   0.506   0.478   0.486   0.457   0.468   0.485   0.509   0.528   0.536   0.481   0.474   0.491   0.518   0.491   0.475   0.462   0.469   0.423   0.448   0.456   0.444   0.450   0.428   0.431   0.466   0.418   0.428   0.439
    33.55    0.622   0.577   0.591   0.574   0.556   0.530   0.534   0.542   0.521   0.485   0.470   0.478   0.462   0.516   0.545   0.487   0.460   0.496   0.460   0.468   0.497   0.493   0.464   0.487   0.471   0.454   0.441   0.479   0.457   0.451   0.441   0.446   0.440   0.421   0.417
    28.90    0.582   0.593   0.582   0.585   0.587   0.534   0.504   0.516   0.507   0.494   0.471   0.498   0.526   0.542   0.522   0.480   0.475   0.468   0.477   0.460   0.486   0.463   0.420   0.457   0.481   0.451   0.466   0.468   0.471   0.481   0.454   0.437   0.435   0.429   0.420
    24.25    0.575   0.590   0.571   0.563   0.528   0.533   0.505   0.533   0.503   0.508   0.503   0.539   0.547   0.504   0.478   0.476   0.433   0.450   0.447   0.458   0.447   0.446   0.438   0.451   0.449   0.463   0.466   0.453   0.454   0.477   0.431   0.411   0.421   0.456   0.430
    19.60    0.570   0.562   0.551   0.582   0.537   0.535   0.511   0.533   0.499   0.454   0.480   0.503   0.485   0.476   0.464   0.449   0.462   0.417   0.432   0.437   0.439   0.431   0.431   0.465   0.451   0.474   0.496   0.476   0.481   0.470   0.453   0.419   0.424   0.446   0.425
    14.95    0.584   0.604   0.625   0.593   0.572   0.541   0.517   0.540   0.534   0.495   0.495   0.498   0.465   0.469   0.438   0.417   0.427   0.415   0.432   0.466   0.430   0.451   0.463   0.475   0.487   0.484   0.469   0.471   0.489   0.494   0.465   0.444   0.452   0.445   0.449
    10.30    0.597   0.586   0.595   0.586   0.605   0.577   0.539   0.522   0.509   0.500   0.444   0.490   0.467   0.476   0.445   0.448   0.416   0.467   0.452   0.465   0.445   0.434   0.456   0.472   0.510   0.506   0.482   0.451   0.476   0.485   0.448   0.433   0.492   0.469   0.490
     5.65    0.556   0.569   0.624   0.572   0.579   0.564   0.514   0.497   0.470   0.443   0.463   0.477   0.481   0.475   0.440   0.467   0.464   0.470   0.448   0.454   0.439   0.425   0.440   0.487   0.484   0.520   0.509   0.459   0.479   0.454   0.471   0.447   0.471   0.503   0.477
     1.00    0.579   0.576   0.616   0.571   0.533   0.532   0.508   0.476   0.484   0.481   0.463   0.464   0.454   0.458   0.453   0.455   0.477   0.487   0.442   0.458   0.448   0.449   0.429   0.461   0.475   0.503   0.479   0.441   0.476   0.479   0.469   0.493   0.469   0.479   0.503

   Height   Standard deviation at grid points for the v component:
   168.40    0.416   0.418   0.433   0.458   0.463   0.467   0.462   0.475   0.471   0.449   0.463   0.469   0.478   0.450   0.428   0.446   0.458   0.449   0.457   0.448   0.443   0.453   0.441   0.443   0.455   0.490   0.521   0.505   0.503   0.497   0.489   0.464   0.446   0.455   0.470
   163.75    0.404   0.420   0.417   0.465   0.465   0.477   0.467   0.467   0.463   0.450   0.462   0.479   0.474   0.451   0.446   0.430   0.425   0.447   0.440   0.426   0.411   0.426   0.435   0.443   0.439   0.487   0.465   0.503   0.502   0.472   0.476   0.466   0.462   0.442   0.447
   159.10    0.422   0.427   0.438   0.467   0.450   0.453   0.475   0.490   0.468   0.461   0.443   0.448   0.463   0.444   0.435   0.436   0.453   0.443   0.437   0.466   0.427   0.406   0.419   0.448   0.452   0.464   0.500   0.485   0.503   0.479   0.490   0.465   0.457   0.463   0.442
   154.45    0.434   0.460   0.441   0.445   0.467   0.479   0.462   0.485   0.488   0.454   0.429   0.431   0.429   0.424   0.406   0.437   0.428   0.460   0.440   0.442   0.444   0.420   0.417   0.458   0.475   0.467   0.486   0.499   0.519   0.476   0.475   0.507   0.510   0.485   0.424
   149.80    0.474   0.495   0.458   0.451   0.462   0.466   0.471   0.484   0.479   0.467   0.444   0.437   0.428   0.439   0.447   0.428   0.432   0.448   0.456   0.447   0.428   0.437   0.457   0.466   0.469   0.483   0.502   0.510   0.488   0.473   0.472   0.470   0.457   0.467   0.419
   145.15    0.469   0.469   0.467   0.461   0.475   0.462   0.479   0.484   0.480   0.455   0.434   0.438   0.427   0.439   0.438   0.432   0.441   0.434   0.436   0.448   0.433   0.431   0.443   0.442   0.450   0.475   0.476   0.477   0.453   0.479   0.456   0.449   0.443   0.436   0.417
   140.50    0.454   0.473   0.470   0.451   0.461   0.467   0.478   0.466   0.479   0.442   0.432   0.435   0.427   0.442   0.456   0.468   0.445   0.457   0.455   0.442   0.450   0.460   0.448   0.444   0.431   0.445   0.452   0.461   0.430   0.447   0.462   0.459   0.432   0.439   0.434
   135.85    0.463   0.474   0.484   0.477   0.454   0.429   0.446   0.429   0.443   0.427   0.415   0.414   0.416   0.427   0.430   0.456   0.437   0.430   0.463   0.472   0.452   0.453   0.449   0.446   0.426   0.415   0.440   0.454   0.429   0.439   0.451   0.455   0.437   0.433   0.431
   131.20    0.441   0.451   0.478   0.471   0.457   0.431   0.430   0.444   0.409   0.418   0.409   0.415   0.430   0.440   0.435   0.447   0.432   0.440   0.449   0.464   0.454   0.445   0.449   0.424   0.431   0.436   0.446   0.449   0.419   0.426   0.443   0.445   0.456   0.444   0.434
   126.55    0.426   0.431   0.481   0.469   0.451   0.449   0.479   0.434   0.413   0.419   0.385   0.394   0.395   0.422   0.452   0.433   0.465   0.482   0.456   0.437   0.457   0.457   0.432   0.425   0.422   0.447   0.456   0.426   0.410   0.407   0.422   0.419   0.435   0.443   0.455
   121.90    0.411   0.439   0.466   0.483   0.463   0.489   0.472   0.463   0.439   0.414   0.380   0.390   0.381   0.436   0.457   0.455   0.476   0.492   0.455   0.466   0.477   0.439   0.425   0.412   0.430   0.442   0.432   0.429   0.430   0.433   0.420   0.429   0.431   0.444   0.480
   117.25    0.421   0.429   0.428   0.451   0.470   0.492   0.501   0.462   0.442   0.418   0.395   0.378   0.402   0.447   0.471   0.471   0.484   0.501   0.461   0.435   0.477   0.438   0.455   0.431   0.420   0.436   0.446   0.437   0.421   0.419   0.414   0.428   0.429   0.413   0.463
   112.60    0.448   0.463   0.442   0.484   0.489   0.486   0.473   0.465   0.412   0.438   0.398   0.390   0.410   0.436   0.428   0.484   0.504   0.481   0.475   0.487   0.492   0.438   0.451   0.450   0.417   0.431   0.401   0.432   0.433   0.439   0.440   0.430   0.406   0.418   0.435
   107.95    0.466   0.465   0.447   0.473   0.480   0.468   0.448   0.449   0.421   0.406   0.400   0.403   0.409   0.412   0.419   0.445   0.453   0.471   0.497   0.474   0.457   0.453   0.452   0.451   0.444   0.427   0.411   0.416   0.434   0.429   0.411   0.415   0.416   0.423   0.427
   103.30    0.429   0.456   0.448   0.445   0.446   0.466   0.454   0.454   0.449   0.432   0.419   0.460   0.415   0.415   0.437   0.442   0.450   0.475   0.486   0.447   0.482   0.451   0.448   0.454   0.465   0.442   0.420   0.419   0.438   0.421   0.399   0.404   0.408   0.409   0.425
    98.65    0.430   0.441   0.449   0.427   0.422   0.439   0.446   0.457   0.434   0.462   0.447   0.469   0.420   0.424   0.458   0.466   0.446   0.454   0.470   0.450   0.465   0.476   0.464   0.448   0.447   0.427   0.422   0.441   0.440   0.417   0.417   0.404   0.387   0.408   0.424
    94.00    0.424   0.427   0.437   0.433   0.395   0.410   0.419   0.418   0.449   0.456   0.442   0.451   0.429   0.432   0.444   0.445   0.456   0.453   0.460   0.469   0.457   0.454   0.444   0.419   0.433   0.452   0.438   0.436   0.421   0.403   0.400   0.406   0.419   0.428   0.446
    89.35    0.403   0.424   0.437   0.412   0.413   0.410   0.387   0.426   0.457   0.442   0.409   0.417   0.421   0.441   0.455   0.436   0.453   0.458   0.479   0.462   0.456   0.448   0.427   0.458   0.475   0.448   0.430   0.419   0.434   0.421   0.421   0.421   0.408   0.405   0.427
    84.70    0.417   0.423   0.415   0.409   0.415   0.406   0.416   0.442   0.444   0.423   0.417   0.419   0.446   0.436   0.442   0.444   0.448   0.462   0.454   0.472   0.471   0.459   0.443   0.474   0.472   0.453   0.429   0.424   0.412   0.421   0.419   0.423   0.409   0.426   0.434
    80.05    0.418   0.416   0.417   0.409   0.418   0.418   0.431   0.434   0.458   0.448   0.446   0.440   0.453   0.440   0.435   0.451   0.465   0.480   0.488   0.470   0.437   0.458   0.476   0.463   0.444   0.439   0.420   0.431   0.427   0.421   0.424   0.412   0.419   0.424   0.424
    75.40    0.441   0.420   0.425   0.440   0.444   0.430   0.426   0.442   0.464   0.451   0.459   0.482   0.479   0.443   0.450   0.459   0.476   0.465   0.487   0.504   0.469   0.458   0.471   0.456   0.438   0.422   0.428   0.425   0.405   0.405   0.404   0.413   0.404   0.421   0.423
    70.75    0.426   0.438   0.410   0.436   0.446   0.437   0.439   0.445   0.446   0.451   0.463   0.469   0.456   0.435   0.437   0.434   0.433   0.446   0.489   0.456   0.457   0.438   0.452   0.460   0.447   0.428   0.418   0.428   0.417   0.418   0.425   0.416   0.419   0.428   0.428
    66.10    0.440   0.425   0.430   0.405   0.432   0.440   0.442   0.437   0.451   0.438   0.454   0.430   0.426   0.420   0.432   0.446   0.424   0.445   0.459   0.462   0.455   0.469   0.462   0.436   0.440   0.412   0.415   0.419   0.420   0.441   0.436   0.424   0.413   0.430   0.440
    61.45    0.426   0.424   0.411   0.417   0.427   0.447   0.437   0.436   0.444   0.456   0.451   0.435   0.427   0.405   0.423   0.438   0.403   0.426   0.435   0.441   0.457   0.441   0.468   0.442   0.427   0.401   0.410   0.429   0.444   0.416   0.429   0.427   0.436   0.442   0.427
    56.80    0.438   0.432   0.425   0.429   0.438   0.448   0.428   0.451   0.463   0.442   0.439   0.437   0.414   0.420   0.432   0.423   0.422   0.408   0.440   0.434   0.461   0.454   0.440   0.472   0.439   0.427   0.418   0.389   0.424   0.411   0.402   0.443   0.444   0.430   0.428
    52.15    0.430   0.441   0.429   0.433   0.462   0.472   0.440   0.440   0.430   0.416   0.452   0.422   0.426   0.407   0.432   0.397   0.408   0.396   0.425   0.445   0.458   0.441   0.437   0.431   0.438   0.431   0.432   0.401   0.410   0.409   0.410   0.419   0.428   0.440   0.422
    47.50    0.440   0.443   0.445   0.446   0.462   0.451   0.429   0.424   0.437   0.446   0.426   0.438   0.439   0.422   0.417   0.402   0.392   0.396   0.412   0.411   0.447   0.441   0.427   0.399   0.422   0.423   0.432   0.435   0.421   0.406   0.389   0.402   0.407   0.408   0.389
    42.85    0.438   0.441   0.457   0.458   0.442   0.425   0.425   0.436   0.443   0.411   0.447   0.432   0.444   0.425   0.423   0.412   0.387   0.396   0.430   0.446   0.453   0.465   0.412   0.410   0.424   0.427   0.415   0.401   0.422   0.412   0.397   0.406   0.417   0.409   0.381
    38.20    0.430   0.434   0.461   0.476   0.458   0.447   0.435   0.429   0.443   0.420   0.429   0.438   0.420   0.439   0.426   0.417   0.412   0.417   0.434   0.452   0.438   0.453   0.469   0.441   0.435   0.445   0.433   0.414   0.396   0.393   0.395   0.412   0.399   0.390   0.416
    33.55    0.457   0.457   0.456   0.462   0.456   0.475   0.430   0.449   0.449   0.406   0.420   0.417   0.432   0.451   0.431   0.386   0.393   0.406   0.421   0.419   0.424   0.445   0.442   0.446   0.433   0.438   0.427   0.438   0.411   0.398   0.400   0.427   0.407   0.387   0.398
    28.90    0.472   0.446   0.433   0.410   0.440   0.459   0.471   0.435   0.428   0.408   0.419   0.416   0.428   0.423   0.416   0.418   0.405   0.395   0.403   0.428   0.425   0.447   0.446   0.430   0.455   0.437   0.446   0.434   0.415   0.418   0.428   0.428   0.397   0.378   0.400
    24.25    0.457   0.451   0.451   0.417   0.416   0.453   0.441   0.428   0.413   0.395   0.410   0.395   0.398   0.424   0.395   0.399   0.398   0.397   0.418   0.430   0.433   0.461   0.457   0.471   0.473   0.462   0.451   0.465   0.423   0.439   0.423   0.430   0.404   0.409   0.421
    19.60    0.468   0.468   0.452   0.413   0.442   0.439   0.428   0.421   0.406   0.385   0.397   0.402   0.415   0.420   0.408   0.372   0.372   0.405   0.425   0.415   0.423   0.456   0.465   0.480   0.490   0.501   0.479   0.458   0.431   0.430   0.403   0.389   0.393   0.406   0.412
    14.95    0.455   0.459   0.457   0.463   0.450   0.437   0.429   0.406   0.415   0.396   0.382   0.404   0.393   0.406   0.377   0.393   0.386   0.388   0.420   0.421   0.425   0.454   0.487   0.476   0.496   0.488   0.465   0.429   0.440   0.414   0.407   0.396   0.408   0.429   0.440
    10.30    0.475   0.473   0.472   0.479   0.477   0.479   0.449   0.407   0.389   0.395   0.354   0.370   0.411   0.379   0.410   0.450   0.446   0.406   0.426   0.422   0.421   0.442   0.483   0.473   0.480   0.474   0.456   0.452   0.441   0.415   0.435   0.428   0.423   0.435   0.426
     5.65    0.452   0.477   0.478   0.499   0.479   0.452   0.439   0.402   0.375   0.395   0.372   0.383   0.399   0.429   0.429   0.468   0.436   0.435   0.430   0.428   0.448   0.441   0.481   0.457   0.473   0.469   0.477   0.486   0.473   0.443   0.434   0.470   0.465   0.435   0.431
     1.00    0.446   0.464   0.474   0.466   0.450   0.466   0.449   0.406   0.392   0.398   0.390   0.385   0.398   0.401   0.424   0.432   0.445   0.438   0.449   0.445   0.465   0.447   0.473   0.480   0.482   0.500   0.508   0.483   0.480   0.463   0.427   0.461   0.461   0.448   0.438

   Height   Standard deviation at grid points for the w component:
   168.40    0.272   0.268   0.260   0.262   0.258   0.263   0.272   0.268   0.272   0.275   0.262   0.270   0.276   0.273   0.277   0.282   0.290   0.282   0.285   0.285   0.286   0.286   0.275   0.270   0.266   0.268   0.258   0.265   0.272   0.277   0.266   0.263   0.258   0.276   0.278
   163.75    0.266   0.259   0.272   0.264   0.255   0.256   0.262   0.263   0.267   0.269   0.275   0.259   0.271   0.278   0.281   0.279   0.283   0.291   0.283   0.282   0.266   0.271   0.285   0.277   0.271   0.258   0.271   0.271   0.277   0.258   0.259   0.261   0.272   0.274   0.273
   159.10    0.267   0.263   0.269   0.273   0.260   0.257   0.262   0.271   0.274   0.278   0.277   0.265   0.280   0.283   0.278   0.280   0.274   0.282   0.288   0.293   0.279   0.277   0.276   0.277   0.273   0.263   0.278   0.272   0.260   0.258   0.263   0.247   0.270   0.277   0.280
   154.45    0.274   0.269   0.269   0.273   0.263   0.259   0.272   0.275   0.275   0.262   0.271   0.267   0.268   0.276   0.275   0.275   0.283   0.283   0.287   0.271   0.280   0.264   0.273   0.275   0.263   0.264   0.268   0.264   0.258   0.259   0.240   0.255   0.271   0.279   0.283
   149.80    0.280   0.273   0.262   0.275   0.275   0.262   0.272   0.276   0.280   0.280   0.275   0.281   0.266   0.277   0.289   0.295   0.291   0.286   0.284   0.275   0.272   0.268   0.271   0.276   0.269   0.259   0.251   0.265   0.264   0.266   0.257   0.260   0.266   0.273   0.258
   145.15    0.287   0.282   0.274   0.282   0.272   0.277   0.272   0.277   0.274   0.279   0.274   0.271   0.283   0.290   0.289   0.295   0.296   0.284   0.274   0.267   0.267   0.276   0.276   0.276   0.267   0.273   0.269   0.267   0.259   0.255   0.261   0.268   0.278   0.269   0.264
   140.50    0.279   0.285   0.278   0.286   0.287   0.274   0.277   0.275   0.273   0.272   0.264   0.285   0.276   0.283   0.286   0.281   0.291   0.285   0.274   0.288   0.266   0.265   0.280   0.274   0.279   0.276   0.270   0.274   0.269   0.257   0.261   0.268   0.276   0.282   0.273
   135.85    0.279   0.273   0.280   0.277   0.282   0.282   0.282   0.266   0.275   0.269   0.273   0.287   0.282   0.270   0.279   0.292   0.285   0.288   0.286   0.290   0.282   0.279   0.280   0.280   0.277   0.281   0.276   0.280   0.270   0.262   0.271   0.267   0.263   0.266   0.268
   131.20    0.275   0.294   0.269   0.268   0.277   0.282   0.282   0.283   0.278   0.285   0.280   0.285   0.283   0.277   0.283   0.289   0.288   0.283   0.289   0.288   0.276   0.285   0.282   0.283   0.286   0.278   0.283   0.278   0.272   0.267   0.275   0.270   0.274   0.267   0.273
   126.55    0.292   0.281   0.271   0.285   0.281   0.277   0.280   0.272   0.284   0.288   0.293   0.300   0.283   0.280   0.289   0.285   0.295   0.292   0.288   0.271   0.277   0.279   0.280   0.291   0.293   0.281   0.280   0.273   0.268   0.258   0.267   0.264   0.267   0.271   0.264
   121.90    0.274   0.281   0.277   0.274   0.279   0.277   0.271   0.273   0.289   0.291   0.297   0.285   0.289   0.287   0.277   0.288   0.282   0.281   0.272   0.270   0.268   0.271   0.276   0.287   0.283   0.282   0.275   0.278   0.271   0.272   0.267   0.266   0.261   0.260   0.262
   117.25    0.270   0.273   0.276   0.276   0.290   0.286   0.287   0.283   0.285   0.294   0.288   0.284   0.286   0.273   0.281   0.283   0.288   0.280   0.274   0.270   0.271   0.281   0.279   0.292   0.289   0.280   0.268   0.275   0.261   0.259   0.265   0.265   0.273   0.263   0.265
   112.60    0.262   0.263   0.264   0.267   0.283   0.290   0.284   0.280   0.288   0.297   0.293   0.286   0.294   0.287   0.289   0.292   0.289   0.278   0.275   0.273   0.264   0.277   0.280   0.293   0.295   0.278   0.272   0.257   0.269   0.263   0.271   0.265   0.271   0.281   0.265
   107.95    0.255   0.258   0.265   0.278   0.291   0.284   0.288   0.287   0.288   0.295   0.286   0.289   0.286   0.288   0.285   0.294   0.280   0.281   0.271   0.280   0.281   0.273   0.266   0.278   0.281   0.279   0.274   0.270   0.275   0.266   0.261   0.271   0.262   0.279   0.288
   103.30    0.262   0.274   0.273   0.282   0.290   0.285   0.280   0.284   0.291   0.286   0.291   0.291   0.281   0.276   0.284   0.284   0.281   0.278   0.281   0.272   0.266   0.271   0.270   0.273   0.279   0.270   0.272   0.269   0.265   0.271   0.258   0.267   0.260   0.286   0.295
    98.65    0.269   0.273   0.270   0.281   0.294   0.285   0.291   0.291   0.287   0.281   0.285   0.297   0.284   0.280   0.278   0.275   0.275   0.277   0.270   0.263   0.273   0.268   0.262   0.274   0.268   0.263   0.269   0.268   0.271   0.266   0.266   0.260   0.282   0.286   0.290
    94.00    0.264   0.268   0.261   0.269   0.276   0.287   0.289   0.289   0.273   0.268   0.286   0.286   0.290   0.281   0.283   0.275   0.287   0.274   0.266   0.276   0.271   0.264   0.261   0.272   0.277   0.272   0.267   0.268   0.261   0.273   0.273   0.279   0.282   0.275   0.282
    89.35    0.268   0.262   0.266   0.273   0.280   0.284   0.281   0.289   0.280   0.289   0.303   0.304   0.280   0.286   0.292   0.276   0.269   0.268   0.270   0.271   0.271   0.259   0.274   0.269   0.277   0.286   0.265   0.271   0.264   0.275   0.279   0.281   0.282   0.293   0.276
    84.70    0.262   0.269   0.280   0.285   0.282   0.274   0.287   0.273   0.273   0.280   0.279   0.278   0.286   0.296   0.296   0.285   0.285   0.272   0.274   0.255   0.258   0.267   0.265   0.268   0.276   0.282   0.279   0.271   0.272   0.277   0.279   0.279   0.287   0.295   0.288
    80.05    0.271   0.277   0.270   0.290   0.281   0.270   0.277   0.279   0.274   0.274   0.282   0.287   0.282   0.280   0.292   0.288   0.284   0.260   0.271   0.267   0.265   0.263   0.260   0.262   0.263   0.272   0.269   0.270   0.270   0.276   0.275   0.279   0.299   0.302   0.295
    75.40    0.279   0.278   0.279   0.279   0.277   0.272   0.266   0.274   0.271   0.267   0.272   0.278   0.277   0.282   0.283   0.278   0.272   0.269   0.279   0.275   0.258   0.256   0.257   0.259   0.259   0.276   0.265   0.277   0.270   0.275   0.281   0.283   0.298   0.284   0.292
    70.75    0.270   0.278   0.276   0.280   0.278   0.274   0.280   0.259   0.267   0.272   0.286   0.282   0.281   0.274   0.272   0.267   0.269   0.280   0.285   0.275   0.271   0.263   0.269   0.269   0.266   0.263   0.270   0.269   0.263   0.278   0.277   0.278   0.288   0.276   0.288
    66.10    0.284   0.272   0.283   0.284   0.270   0.264   0.273   0.271   0.282   0.279   0.272   0.278   0.276   0.268   0.268   0.264   0.272   0.286   0.282   0.274   0.260   0.268   0.265   0.270   0.260   0.265   0.265   0.265   0.265   0.270   0.271   0.269   0.273   0.285   0.291
    61.45    0.287   0.273   0.277   0.271   0.267   0.259   0.269   0.267   0.272   0.276   0.279   0.282   0.286   0.284   0.262   0.265   0.280   0.292   0.287   0.286   0.265   0.272   0.272   0.266   0.270   0.263   0.262   0.273   0.283   0.266   0.271   0.261   0.270   0.276   0.275
    56.80    0.289   0.284   0.274   0.271   0.272   0.264   0.275   0.285   0.266   0.272   0.286   0.282   0.274   0.282   0.272   0.258   0.271   0.280   0.281   0.276   0.272   0.273   0.270   0.272   0.275   0.257   0.260   0.265   0.279   0.272   0.282   0.260   0.269   0.269   0.277
    52.15    0.285   0.287   0.288   0.277   0.278   0.268   0.258   0.271   0.278   0.278   0.276   0.283   0.279   0.274   0.277   0.273   0.271   0.281   0.280   0.270   0.282   0.279   0.267   0.277   0.276   0.269   0.259   0.273   0.281   0.276   0.280   0.276   0.272   0.269   0.269
    47.50    0.281   0.281   0.281   0.272   0.272   0.276   0.263   0.274   0.277   0.277   0.276   0.286   0.267   0.272   0.283   0.272   0.270   0.266   0.272   0.268   0.277   0.287   0.278   0.286   0.287   0.282   0.283   0.271   0.277   0.278   0.280   0.267   0.271   0.270   0.263
    42.85    0.275   0.277   0.277   0.268   0.266   0.267   0.266   0.265   0.271   0.270   0.271   0.275   0.277   0.269   0.281   0.269   0.273   0.273   0.269   0.276   0.271   0.277   0.270   0.282   0.290   0.277   0.283   0.278   0.285   0.282   0.269   0.268   0.277   0.257   0.262
    38.20    0.271   0.277   0.279   0.284   0.264   0.272   0.266   0.259   0.271   0.275   0.270   0.272   0.279   0.270   0.274   0.271   0.271   0.277   0.266   0.280   0.269   0.277   0.275   0.282   0.282   0.289   0.284   0.287   0.291   0.287   0.290   0.286   0.265   0.254   0.260
    33.55    0.274   0.281   0.284   0.283   0.278   0.273   0.266   0.259   0.263   0.263   0.265   0.265   0.277   0.279   0.271   0.269   0.284   0.279   0.269   0.286   0.276   0.280   0.287   0.285   0.286   0.293   0.291   0.290   0.290   0.287   0.285   0.264   0.258   0.252   0.265
    28.90    0.256   0.269   0.279   0.278   0.269   0.277   0.264   0.259   0.271   0.273   0.272   0.273   0.264   0.271   0.279   0.280   0.267   0.284   0.289   0.295   0.275   0.284   0.282   0.291   0.300   0.299   0.293   0.292   0.282   0.298   0.286   0.262   0.264   0.265   0.255
    24.25    0.269   0.257   0.268   0.273   0.280   0.278   0.275   0.273   0.274   0.271   0.281   0.275   0.285   0.271   0.278   0.280   0.278   0.281   0.297   0.285   0.290   0.281   0.283   0.286   0.279   0.288   0.297   0.296   0.288   0.290   0.269   0.266   0.253   0.269   0.271
    19.60    0.264   0.261   0.259   0.262   0.273   0.267   0.275   0.265   0.276   0.288   0.281   0.291   0.279   0.279   0.279   0.283   0.283   0.273   0.284   0.286   0.274   0.280   0.288   0.286   0.282   0.281   0.289   0.275   0.288   0.281   0.271   0.264   0.260   0.266   0.270
    14.95    0.272   0.258   0.252   0.256   0.270   0.288   0.272   0.260   0.269   0.290   0.289   0.282   0.281   0.291   0.296   0.291   0.284   0.277   0.273   0.277   0.279   0.278   0.292   0.298   0.289   0.287   0.285   0.271   0.287   0.276   0.272   0.261   0.261   0.253   0.261
    10.30    0.265   0.260   0.267   0.271   0.271   0.289   0.277   0.257   0.264   0.268   0.276   0.275   0.286   0.278   0.281   0.288   0.279   0.284   0.279   0.272   0.275   0.274   0.281   0.299   0.284   0.289   0.283   0.284   0.280   0.281   0.267   0.266   0.274   0.275   0.272
     5.65    0.253   0.279   0.272   0.269   0.261   0.275   0.277   0.262   0.275   0.275   0.279   0.289   0.284   0.281   0.274   0.287   0.279   0.284   0.282   0.264   0.266   0.275   0.288   0.296   0.298   0.285   0.276   0.279   0.262   0.283   0.276   0.277   0.272   0.283   0.274
     1.00    0.276   0.273   0.265   0.273   0.263   0.264   0.274   0.272   0.271   0.275   0.279   0.285   0.284   0.270   0.275   0.287   0.285   0.274   0.289   0.271   0.274   0.273   0.279   0.284   0.285   0.267   0.278   0.280   0.270   0.278   0.276   0.273   0.276   0.281   0.274

   Mean standard deviation across all grid points:
      u component:    0.492 m/s
      v component:    0.439 m/s
      w component:    0.276 m/s


U-component (X) statistics from the interpolated hub point:

   Mean =   9.9913 m/s
   TI   =   4.7290 %


Processing complete.  6412.2 CPU seconds used.
