
This summary file was generated by TurbSim (from OpenFAST-v3.5.3) on 20-Apr-2025 at 04:34:53.


Runtime Options:

 916078875  Random seed #1
    RANLUX  Type of random number generator
         F  Output binary HH turbulence parameters?
         F  Output formatted turbulence parameters?
         F  Output AeroDyn HH files?
         T  Output AeroDyn FF files?
         F  Output BLADED FF files?
         F  Output tower data?
         F  Output HAWC FF files?
         F  Output formatted FF files?
         T  Output coherent turbulence time step file?
 0 -  NONE  IEC turbulence models scaled to exact specified standard deviation


Turbine/Model Specifications:

        37  Vertical grid-point matrix dimension
        35  Horizontal grid-point matrix dimension
     0.250  Time step [seconds]
   900.000  Analysis time [seconds]
   900.000  Usable output time [seconds]
    89.350  Hub height [m]
   167.400  Grid height [m]
   158.100  Grid width [m]
     0.000  Vertical flow angle [degrees]
     0.000  Horizontal flow angle [degrees]


Meteorological Boundary Conditions:

    TIMESR  User-input time series spectral model
       N/A  IEC standard
       N/A  IEC turbulence characteristic
       N/A  IEC turbulence type
       N/A  IEC Extreme Turbulence Model (ETM) "c" parameter [m/s]
       PL   Wind profile type
    90.000  Reference height [m]
    10.000  Reference wind speed [m/s]
       N/A  Jet height [m]
     0.120  Power law exponent
     0.030  Surface roughness length [m]


Non-IEC Meteorological Boundary Conditions:

    45.000  Site latitude [degrees]
     0.050  Gradient Richardson number
     0.480  Friction or shear velocity [m/s]
       N/A  Mixing layer depth [m]
       N/A  Mean hub u'w' Reynolds stress
       N/A  Mean hub u'v' Reynolds stress
       N/A  Mean hub v'w' Reynolds stress


Spatial Coherence Models:

       IEC  u-component coherence model
       IEC  v-component coherence model
       IEC  w-component coherence model
(   12.000, 0.353E-03)  u-component coherence parameters
(   12.000, 0.353E-03)  v-component coherence parameters
(   12.000, 0.353E-03)  w-component coherence parameters
       N/A  Coherence exponent


Coherent Turbulence Scaling Parameters:

.\EventData
            Name of the path containing the coherent turbulence data files
       les  Type of coherent turbulence data files
     1.000  Disturbance scale (ratio of wave height to rotor diameter)
     0.500  Fractional location of tower centerline from right
     0.500  Fractional location of hub height from the bottom of the dataset
    30.000  Minimum start time for coherent structures [seconds]


Profiles from User-Defined Time-Series Input:

  Height   Wind Speed   Horizontal Angle   Vertical Angle
   (m)        (m/s)          (deg)              (deg)    
  ------   ----------   ----------------   --------------
   94.00      10.00          -0.63                0.00


You have requested that the following file(s) be generated:

   /kfs3/scratch/agupta/Projects/RL_Incubator/FinalRuns_Veer/Seed4/./FFSim_Seed4/Cond00_v10.0_PL0.12_TI6.0/Case1_wdirp02/Seed_0/TurbSim/HighT7.bts (AeroDyn/TurbSim full-field wind file)


Turbulence Simulation Scaling Parameter Summary:

   Turbulence model used                            =  User-input time series
   Gradient Richardson number                       =    0.050
   Monin-Obukhov (M-O) z/L parameter                =    0.067
   Monin-Obukhov (M-O) length scale                 = 1340.250 m
   Mean wind speed at hub height                    =    9.991 m/s

   Wind profile type                                =  Power law
   Power law exponent                               =    0.120
   Mean shear across rotor disk                     =    0.019 (m/s)/m
   Assumed rotor diameter                           =  158.100 m
   Surface roughness length                         =    0.030 m

   Nyquist frequency of turbulent wind field        =    2.000 Hz

   Number of time steps in the FFT                  =     3600
   Number of time steps output                      =     3600
   Number of points simulated                       =     1296


Mean Flow Angles:

   Vertical   =   0.0 degrees
   Horizontal =   0.0 degrees

Mean Wind Speed Profile:

   Height    Wind Speed   Horizontal Angle  Vertical Angle  U-comp (X)   V-comp (Y)   W-comp (Z)
     (m)        (m/s)         (degrees)       (degrees)       (m/s)        (m/s)        (m/s)   
   ------    ----------   ----------------  --------------  ----------   ----------   ----------
    168.4       10.78            0.00            0.00         10.78         0.00         0.00
    163.7       10.74            0.00            0.00         10.74         0.00         0.00
    159.1       10.71            0.00            0.00         10.71         0.00         0.00
    154.4       10.67            0.00            0.00         10.67         0.00         0.00
    149.8       10.63            0.00            0.00         10.63         0.00         0.00
    145.1       10.59            0.00            0.00         10.59         0.00         0.00
    140.5       10.55            0.00            0.00         10.55         0.00         0.00
    135.8       10.51            0.00            0.00         10.51         0.00         0.00
    131.2       10.46            0.00            0.00         10.46         0.00         0.00
    126.5       10.42            0.00            0.00         10.42         0.00         0.00
    121.9       10.37            0.00            0.00         10.37         0.00         0.00
    117.2       10.32            0.00            0.00         10.32         0.00         0.00
    112.6       10.27            0.00            0.00         10.27         0.00         0.00
    107.9       10.22            0.00            0.00         10.22         0.00         0.00
    103.3       10.17            0.00            0.00         10.17         0.00         0.00
     98.6       10.11            0.00            0.00         10.11         0.00         0.00
     94.0       10.05            0.00            0.00         10.05         0.00         0.00
     89.3        9.99            0.00            0.00          9.99         0.00         0.00
     84.7        9.93            0.00            0.00          9.93         0.00         0.00
     80.0        9.86            0.00            0.00          9.86         0.00         0.00
     75.4        9.79            0.00            0.00          9.79         0.00         0.00
     70.7        9.72            0.00            0.00          9.72         0.00         0.00
     66.1        9.64            0.00            0.00          9.64         0.00         0.00
     61.4        9.55            0.00            0.00          9.55         0.00         0.00
     56.8        9.46            0.00            0.00          9.46         0.00         0.00
     52.1        9.37            0.00            0.00          9.37         0.00         0.00
     47.5        9.26            0.00            0.00          9.26         0.00         0.00
     42.8        9.15            0.00            0.00          9.15         0.00         0.00
     38.2        9.02            0.00            0.00          9.02         0.00         0.00
     33.5        8.88            0.00            0.00          8.88         0.00         0.00
     28.9        8.73            0.00            0.00          8.73         0.00         0.00
     24.2        8.54            0.00            0.00          8.54         0.00         0.00
     19.6        8.33            0.00            0.00          8.33         0.00         0.00
     14.9        8.06            0.00            0.00          8.06         0.00         0.00
     10.3        7.71            0.00            0.00          7.71         0.00         0.00
      5.6        7.17            0.00            0.00          7.17         0.00         0.00
      1.0        5.83            0.00            0.00          5.83         0.00         0.00


Harvested Random Seeds after Generation of the Random Numbers:

     65026800 K 1
            0 K 2


Hub-Height Simulated Turbulence Statistical Summary:

   Type of Wind        Min (m/s)   Mean (m/s)    Max (m/s)  Sigma (m/s)       TI (%)
   ----------------    ---------   ----------    ---------  -----------       ------
   Longitudinal (u)         8.24         9.99        11.77        0.534        5.343
   Lateral (v)             -1.58         0.00         1.43        0.462        4.620
   Vertical (w)            -1.04         0.00         1.01        0.302        3.018
   U component              8.24         9.99        11.77        0.534        5.343
   V component             -1.58         0.00         1.43        0.462        4.620
   W component             -1.04         0.00         1.01        0.302        3.018
   Horizontal (U&V)         8.28        10.00        11.77        0.534        5.340
   Total                    8.29        10.01        11.78        0.534        5.333

                       Min Reynolds     Mean Reynolds    Max Reynolds    Correlation
   Product             Stress (m/s)^2   Stress (m/s)^2   Stress (m/s)^2  Coefficient
   ----------------    --------------   --------------   --------------  -----------
   u'w'                     -0.730            -0.006             0.802        -0.035
   u'v'                     -0.992             0.038             1.429         0.155
   v'w'                     -0.953            -0.010             0.626        -0.073


   Friction Velocity (Ustar)  =      0.075 m/s
   Maximum Instantaneous TKE  =      1.872 (m/s)^2
   Maximum Instantaneous CTKE =      0.729 (m/s)^2


Grid Point Variance Summary:

   Y-coord  -79.05  -74.40  -69.75  -65.10  -60.45  -55.80  -51.15  -46.50  -41.85  -37.20  -32.55  -27.90  -23.25  -18.60  -13.95   -9.30   -4.65    0.00    4.65    9.30   13.95   18.60   23.25   27.90   32.55   37.20   41.85   46.50   51.15   55.80   60.45   65.10   69.75   74.40   79.05

   Height   Standard deviation at grid points for the u component:
   168.40    0.604   0.570   0.566   0.573   0.548   0.516   0.537   0.548   0.519   0.554   0.556   0.594   0.594   0.575   0.548   0.563   0.527   0.499   0.513   0.576   0.552   0.566   0.543   0.491   0.494   0.506   0.471   0.506   0.548   0.515   0.522   0.508   0.542   0.514   0.551
   163.75    0.630   0.614   0.591   0.563   0.538   0.512   0.538   0.529   0.522   0.537   0.548   0.571   0.598   0.567   0.523   0.489   0.502   0.493   0.536   0.536   0.564   0.575   0.541   0.486   0.476   0.473   0.475   0.493   0.524   0.541   0.522   0.510   0.518   0.546   0.558
   159.10    0.606   0.606   0.552   0.538   0.526   0.505   0.510   0.520   0.529   0.517   0.549   0.540   0.556   0.532   0.502   0.486   0.480   0.503   0.526   0.538   0.572   0.557   0.518   0.465   0.474   0.450   0.482   0.507   0.535   0.549   0.538   0.488   0.521   0.547   0.541
   154.45    0.603   0.597   0.557   0.516   0.481   0.499   0.485   0.512   0.538   0.529   0.577   0.537   0.511   0.511   0.473   0.498   0.479   0.496   0.515   0.526   0.578   0.553   0.545   0.508   0.487   0.485   0.480   0.492   0.522   0.510   0.541   0.513   0.520   0.540   0.519
   149.80    0.595   0.590   0.565   0.526   0.513   0.495   0.503   0.488   0.532   0.543   0.536   0.506   0.519   0.509   0.484   0.504   0.488   0.495   0.490   0.536   0.555   0.530   0.531   0.481   0.481   0.501   0.502   0.507   0.516   0.530   0.538   0.534   0.502   0.532   0.537
   145.15    0.597   0.548   0.565   0.533   0.484   0.465   0.473   0.479   0.500   0.501   0.482   0.485   0.469   0.454   0.458   0.486   0.525   0.493   0.522   0.511   0.531   0.538   0.499   0.513   0.526   0.504   0.502   0.495   0.489   0.511   0.524   0.517   0.539   0.549   0.542
   140.50    0.567   0.550   0.540   0.492   0.478   0.463   0.460   0.473   0.474   0.471   0.471   0.466   0.479   0.488   0.482   0.498   0.515   0.509   0.540   0.534   0.535   0.518   0.532   0.497   0.499   0.528   0.511   0.474   0.481   0.493   0.498   0.504   0.520   0.543   0.503
   135.85    0.522   0.534   0.522   0.519   0.482   0.437   0.427   0.449   0.446   0.450   0.483   0.488   0.482   0.492   0.497   0.492   0.489   0.502   0.536   0.516   0.537   0.507   0.507   0.479   0.507   0.501   0.505   0.468   0.518   0.533   0.492   0.515   0.489   0.510   0.490
   131.20    0.512   0.507   0.488   0.471   0.462   0.448   0.444   0.426   0.443   0.451   0.447   0.468   0.477   0.458   0.451   0.455   0.453   0.490   0.523   0.505   0.516   0.511   0.503   0.475   0.480   0.447   0.505   0.513   0.533   0.528   0.513   0.495   0.499   0.512   0.493
   126.55    0.484   0.480   0.454   0.445   0.455   0.446   0.430   0.421   0.453   0.462   0.480   0.475   0.444   0.453   0.443   0.446   0.440   0.447   0.468   0.478   0.479   0.482   0.472   0.487   0.464   0.456   0.475   0.509   0.499   0.510   0.490   0.478   0.446   0.500   0.500
   121.90    0.486   0.471   0.450   0.468   0.456   0.450   0.426   0.421   0.464   0.473   0.462   0.450   0.461   0.450   0.450   0.450   0.423   0.419   0.440   0.455   0.487   0.448   0.457   0.451   0.454   0.456   0.443   0.475   0.497   0.486   0.488   0.487   0.463   0.466   0.492
   117.25    0.483   0.443   0.426   0.432   0.441   0.443   0.411   0.449   0.464   0.483   0.480   0.475   0.467   0.450   0.474   0.448   0.461   0.446   0.448   0.446   0.466   0.455   0.459   0.462   0.449   0.468   0.465   0.485   0.508   0.510   0.486   0.502   0.495   0.479   0.490
   112.60    0.466   0.459   0.429   0.426   0.432   0.441   0.437   0.430   0.470   0.465   0.494   0.495   0.475   0.476   0.463   0.450   0.440   0.464   0.449   0.457   0.471   0.490   0.498   0.496   0.503   0.513   0.505   0.478   0.533   0.512   0.507   0.496   0.518   0.481   0.494
   107.95    0.457   0.454   0.437   0.434   0.462   0.454   0.451   0.451   0.475   0.493   0.486   0.504   0.489   0.502   0.480   0.455   0.456   0.461   0.498   0.489   0.506   0.507   0.520   0.501   0.492   0.478   0.490   0.503   0.510   0.484   0.452   0.492   0.495   0.487   0.503
   103.30    0.456   0.438   0.446   0.475   0.470   0.470   0.486   0.474   0.509   0.530   0.534   0.491   0.512   0.516   0.501   0.458   0.459   0.461   0.494   0.535   0.519   0.526   0.517   0.504   0.495   0.491   0.494   0.508   0.484   0.495   0.439   0.478   0.456   0.490   0.506
    98.65    0.458   0.452   0.463   0.494   0.463   0.493   0.504   0.535   0.523   0.510   0.530   0.521   0.490   0.536   0.525   0.500   0.505   0.523   0.541   0.543   0.549   0.524   0.512   0.511   0.508   0.489   0.464   0.489   0.498   0.464   0.441   0.439   0.463   0.474   0.504
    94.00    0.489   0.498   0.505   0.513   0.497   0.504   0.539   0.530   0.542   0.540   0.530   0.519   0.498   0.518   0.516   0.544   0.549   0.497   0.521   0.537   0.500   0.498   0.523   0.521   0.514   0.510   0.478   0.476   0.478   0.484   0.474   0.452   0.468   0.464   0.484
    89.35    0.498   0.518   0.540   0.514   0.528   0.532   0.541   0.529   0.523   0.553   0.560   0.541   0.537   0.502   0.526   0.535   0.554   0.534   0.521   0.507   0.501   0.520   0.511   0.519   0.519   0.505   0.481   0.479   0.507   0.497   0.494   0.464   0.478   0.463   0.476
    84.70    0.550   0.547   0.526   0.495   0.536   0.542   0.532   0.526   0.528   0.522   0.529   0.528   0.522   0.507   0.482   0.495   0.511   0.524   0.513   0.536   0.508   0.507   0.515   0.497   0.507   0.503   0.478   0.471   0.474   0.513   0.480   0.497   0.489   0.486   0.452
    80.05    0.542   0.554   0.492   0.507   0.501   0.510   0.523   0.532   0.528   0.497   0.511   0.499   0.496   0.477   0.504   0.488   0.498   0.517   0.509   0.527   0.512   0.533   0.514   0.507   0.487   0.471   0.457   0.474   0.492   0.495   0.487   0.477   0.492   0.454   0.454
    75.40    0.535   0.517   0.533   0.512   0.492   0.497   0.497   0.504   0.498   0.501   0.494   0.487   0.468   0.469   0.500   0.497   0.502   0.499   0.513   0.497   0.512   0.500   0.518   0.543   0.507   0.509   0.456   0.500   0.510   0.496   0.491   0.487   0.483   0.451   0.457
    70.75    0.502   0.506   0.520   0.505   0.468   0.480   0.490   0.486   0.491   0.496   0.480   0.487   0.462   0.451   0.479   0.467   0.482   0.486   0.494   0.521   0.510   0.516   0.550   0.524   0.519   0.499   0.504   0.530   0.531   0.503   0.504   0.497   0.484   0.474   0.436
    66.10    0.483   0.475   0.506   0.475   0.484   0.475   0.492   0.454   0.470   0.464   0.462   0.489   0.474   0.474   0.486   0.489   0.474   0.524   0.485   0.524   0.508   0.522   0.531   0.547   0.520   0.556   0.553   0.590   0.558   0.510   0.514   0.523   0.482   0.468   0.458
    61.45    0.498   0.477   0.517   0.488   0.508   0.501   0.500   0.488   0.459   0.482   0.490   0.480   0.487   0.482   0.478   0.510   0.489   0.519   0.533   0.548   0.528   0.541   0.540   0.552   0.568   0.547   0.580   0.577   0.549   0.532   0.536   0.523   0.527   0.456   0.472
    56.80    0.496   0.481   0.525   0.530   0.508   0.471   0.518   0.497   0.459   0.483   0.497   0.503   0.490   0.480   0.517   0.527   0.488   0.499   0.549   0.552   0.536   0.545   0.558   0.566   0.549   0.547   0.560   0.549   0.510   0.528   0.551   0.525   0.514   0.488   0.461
    52.15    0.525   0.509   0.523   0.499   0.503   0.489   0.507   0.510   0.480   0.507   0.508   0.507   0.491   0.475   0.527   0.519   0.521   0.539   0.552   0.544   0.543   0.511   0.530   0.534   0.518   0.520   0.530   0.542   0.516   0.507   0.502   0.514   0.488   0.480   0.477
    47.50    0.513   0.514   0.532   0.505   0.493   0.499   0.531   0.532   0.534   0.520   0.505   0.490   0.496   0.505   0.517   0.519   0.524   0.512   0.541   0.529   0.518   0.524   0.520   0.534   0.535   0.530   0.507   0.534   0.519   0.505   0.496   0.482   0.456   0.481   0.480
    42.85    0.514   0.514   0.506   0.517   0.526   0.522   0.532   0.535   0.534   0.516   0.515   0.518   0.505   0.499   0.501   0.489   0.501   0.502   0.501   0.527   0.524   0.515   0.514   0.520   0.537   0.515   0.513   0.533   0.532   0.501   0.489   0.466   0.489   0.501   0.501
    38.20    0.536   0.542   0.554   0.533   0.547   0.534   0.520   0.529   0.509   0.499   0.521   0.543   0.496   0.493   0.534   0.502   0.481   0.496   0.520   0.520   0.539   0.525   0.508   0.552   0.498   0.494   0.499   0.512   0.519   0.497   0.479   0.478   0.524   0.537   0.496
    33.55    0.494   0.539   0.564   0.537   0.533   0.550   0.544   0.491   0.520   0.515   0.521   0.557   0.527   0.514   0.522   0.518   0.504   0.486   0.512   0.513   0.551   0.549   0.538   0.518   0.506   0.511   0.505   0.496   0.520   0.498   0.489   0.511   0.532   0.553   0.531
    28.90    0.494   0.518   0.528   0.534   0.530   0.518   0.515   0.526   0.514   0.514   0.529   0.568   0.538   0.524   0.532   0.539   0.521   0.541   0.494   0.535   0.543   0.528   0.507   0.506   0.515   0.516   0.521   0.490   0.500   0.487   0.519   0.545   0.554   0.535   0.523
    24.25    0.519   0.519   0.512   0.513   0.511   0.517   0.509   0.509   0.538   0.563   0.555   0.567   0.572   0.552   0.542   0.571   0.571   0.548   0.521   0.534   0.538   0.554   0.517   0.535   0.522   0.538   0.510   0.520   0.505   0.509   0.542   0.569   0.561   0.531   0.527
    19.60    0.512   0.520   0.527   0.529   0.543   0.545   0.549   0.533   0.553   0.570   0.578   0.571   0.594   0.599   0.573   0.601   0.575   0.555   0.550   0.563   0.546   0.541   0.553   0.519   0.543   0.548   0.542   0.567   0.552   0.525   0.531   0.587   0.559   0.525   0.496
    14.95    0.510   0.554   0.537   0.563   0.540   0.555   0.534   0.560   0.573   0.594   0.614   0.597   0.632   0.583   0.595   0.585   0.552   0.566   0.573   0.577   0.590   0.533   0.551   0.555   0.547   0.572   0.574   0.556   0.580   0.554   0.565   0.585   0.557   0.533   0.537
    10.30    0.529   0.558   0.539   0.562   0.561   0.559   0.590   0.602   0.574   0.586   0.606   0.617   0.586   0.589   0.579   0.548   0.536   0.583   0.598   0.607   0.563   0.573   0.598   0.596   0.574   0.584   0.568   0.567   0.563   0.581   0.617   0.639   0.603   0.537   0.531
     5.65    0.529   0.571   0.571   0.571   0.575   0.615   0.630   0.613   0.594   0.611   0.625   0.628   0.593   0.563   0.560   0.558   0.551   0.579   0.585   0.586   0.590   0.595   0.617   0.631   0.604   0.585   0.587   0.608   0.602   0.595   0.647   0.595   0.608   0.607   0.594
     1.00    0.573   0.581   0.606   0.601   0.610   0.622   0.607   0.614   0.602   0.631   0.618   0.604   0.582   0.571   0.586   0.555   0.572   0.574   0.571   0.592   0.566   0.585   0.626   0.605   0.587   0.592   0.599   0.592   0.591   0.617   0.621   0.600   0.614   0.609   0.614

   Height   Standard deviation at grid points for the v component:
   168.40    0.442   0.429   0.423   0.444   0.437   0.452   0.459   0.471   0.441   0.420   0.427   0.430   0.452   0.444   0.435   0.432   0.448   0.418   0.426   0.439   0.431   0.438   0.417   0.446   0.455   0.461   0.496   0.480   0.468   0.455   0.457   0.442   0.432   0.421   0.423
   163.75    0.461   0.445   0.461   0.478   0.480   0.490   0.458   0.471   0.454   0.427   0.426   0.455   0.455   0.440   0.430   0.458   0.440   0.414   0.419   0.440   0.433   0.407   0.416   0.427   0.425   0.442   0.474   0.501   0.482   0.457   0.460   0.457   0.447   0.438   0.428
   159.10    0.458   0.450   0.475   0.509   0.505   0.514   0.460   0.458   0.455   0.444   0.445   0.446   0.468   0.463   0.443   0.443   0.447   0.443   0.443   0.439   0.427   0.429   0.428   0.412   0.422   0.441   0.465   0.481   0.461   0.464   0.463   0.438   0.460   0.449   0.446
   154.45    0.465   0.503   0.505   0.532   0.549   0.511   0.487   0.471   0.445   0.451   0.454   0.480   0.471   0.462   0.464   0.456   0.470   0.452   0.421   0.443   0.444   0.419   0.412   0.433   0.412   0.436   0.453   0.456   0.451   0.449   0.460   0.469   0.453   0.477   0.465
   149.80    0.492   0.488   0.486   0.517   0.521   0.519   0.475   0.442   0.443   0.441   0.438   0.443   0.422   0.454   0.443   0.465   0.430   0.416   0.439   0.445   0.426   0.435   0.429   0.417   0.428   0.423   0.458   0.481   0.472   0.457   0.478   0.465   0.440   0.474   0.489
   145.15    0.464   0.469   0.495   0.493   0.508   0.499   0.492   0.441   0.445   0.445   0.426   0.430   0.425   0.444   0.423   0.430   0.428   0.422   0.448   0.439   0.435   0.437   0.436   0.412   0.450   0.427   0.448   0.480   0.484   0.463   0.491   0.479   0.469   0.461   0.480
   140.50    0.456   0.462   0.496   0.514   0.486   0.463   0.457   0.478   0.444   0.459   0.475   0.455   0.455   0.445   0.448   0.408   0.441   0.480   0.465   0.434   0.451   0.459   0.462   0.434   0.442   0.448   0.439   0.465   0.464   0.479   0.483   0.464   0.460   0.478   0.501
   135.85    0.466   0.476   0.484   0.491   0.488   0.474   0.449   0.456   0.468   0.477   0.471   0.461   0.436   0.464   0.447   0.410   0.436   0.450   0.480   0.461   0.446   0.458   0.436   0.438   0.427   0.449   0.430   0.453   0.489   0.460   0.469   0.481   0.474   0.476   0.488
   131.20    0.505   0.489   0.506   0.478   0.450   0.451   0.446   0.457   0.461   0.462   0.463   0.457   0.479   0.466   0.439   0.439   0.428   0.449   0.469   0.466   0.432   0.445   0.439   0.420   0.429   0.438   0.447   0.459   0.464   0.483   0.470   0.483   0.477   0.463   0.462
   126.55    0.491   0.507   0.496   0.472   0.441   0.473   0.465   0.444   0.483   0.470   0.441   0.458   0.472   0.448   0.438   0.427   0.422   0.429   0.429   0.442   0.431   0.433   0.413   0.411   0.413   0.450   0.444   0.459   0.464   0.496   0.479   0.494   0.480   0.482   0.510
   121.90    0.518   0.474   0.502   0.463   0.458   0.459   0.439   0.473   0.460   0.448   0.465   0.456   0.475   0.493   0.436   0.414   0.422   0.406   0.419   0.441   0.433   0.453   0.434   0.415   0.428   0.440   0.443   0.473   0.451   0.491   0.472   0.470   0.479   0.496   0.506
   117.25    0.516   0.506   0.473   0.479   0.478   0.486   0.471   0.452   0.457   0.442   0.454   0.452   0.474   0.461   0.452   0.434   0.396   0.404   0.409   0.433   0.445   0.449   0.432   0.434   0.429   0.454   0.470   0.472   0.458   0.483   0.472   0.459   0.474   0.476   0.484
   112.60    0.533   0.488   0.460   0.491   0.497   0.493   0.465   0.485   0.469   0.466   0.462   0.458   0.468   0.461   0.455   0.421   0.395   0.416   0.450   0.438   0.438   0.450   0.450   0.457   0.437   0.453   0.457   0.464   0.453   0.463   0.490   0.460   0.467   0.440   0.459
   107.95    0.532   0.513   0.500   0.516   0.527   0.507   0.495   0.520   0.498   0.463   0.443   0.467   0.481   0.454   0.448   0.424   0.406   0.436   0.425   0.421   0.444   0.435   0.451   0.460   0.421   0.445   0.484   0.487   0.458   0.453   0.463   0.470   0.466   0.456   0.483
   103.30    0.528   0.537   0.526   0.525   0.510   0.506   0.500   0.491   0.480   0.467   0.459   0.488   0.483   0.469   0.436   0.420   0.435   0.433   0.434   0.409   0.434   0.433   0.441   0.440   0.450   0.478   0.488   0.474   0.501   0.480   0.459   0.484   0.473   0.494   0.489
    98.65    0.521   0.573   0.581   0.527   0.521   0.504   0.517   0.502   0.501   0.478   0.465   0.488   0.478   0.443   0.415   0.416   0.445   0.449   0.441   0.423   0.442   0.439   0.487   0.491   0.492   0.507   0.523   0.513   0.483   0.477   0.455   0.493   0.462   0.499   0.509
    94.00    0.551   0.571   0.573   0.546   0.505   0.516   0.492   0.511   0.502   0.484   0.478   0.482   0.484   0.471   0.439   0.453   0.438   0.457   0.451   0.440   0.453   0.459   0.494   0.513   0.546   0.529   0.525   0.506   0.477   0.448   0.463   0.483   0.476   0.496   0.528
    89.35    0.566   0.562   0.574   0.535   0.513   0.528   0.485   0.472   0.486   0.501   0.497   0.481   0.486   0.485   0.453   0.455   0.464   0.462   0.490   0.482   0.452   0.468   0.478   0.502   0.489   0.515   0.510   0.506   0.474   0.444   0.463   0.458   0.470   0.479   0.494
    84.70    0.552   0.586   0.545   0.548   0.521   0.488   0.457   0.445   0.478   0.491   0.487   0.480   0.468   0.469   0.474   0.469   0.461   0.481   0.463   0.468   0.463   0.473   0.491   0.510   0.491   0.501   0.518   0.501   0.446   0.469   0.461   0.488   0.475   0.463   0.502
    80.05    0.557   0.561   0.554   0.550   0.522   0.493   0.480   0.448   0.480   0.494   0.506   0.476   0.482   0.459   0.441   0.438   0.438   0.452   0.480   0.474   0.472   0.472   0.492   0.511   0.496   0.481   0.495   0.477   0.466   0.458   0.450   0.470   0.476   0.503   0.516
    75.40    0.545   0.565   0.548   0.538   0.503   0.485   0.481   0.469   0.500   0.467   0.468   0.484   0.488   0.464   0.466   0.446   0.464   0.468   0.478   0.513   0.489   0.495   0.484   0.494   0.506   0.528   0.505   0.493   0.461   0.451   0.430   0.433   0.456   0.500   0.475
    70.75    0.540   0.532   0.549   0.546   0.513   0.506   0.485   0.518   0.465   0.488   0.482   0.463   0.478   0.455   0.441   0.461   0.462   0.464   0.474   0.515   0.509   0.520   0.480   0.482   0.480   0.505   0.496   0.470   0.447   0.459   0.430   0.444   0.451   0.483   0.484
    66.10    0.533   0.539   0.538   0.518   0.544   0.539   0.521   0.528   0.519   0.481   0.491   0.499   0.485   0.463   0.451   0.431   0.433   0.476   0.477   0.502   0.510   0.495   0.506   0.495   0.482   0.476   0.449   0.449   0.451   0.454   0.437   0.474   0.453   0.472   0.491
    61.45    0.565   0.541   0.513   0.532   0.550   0.571   0.541   0.553   0.544   0.496   0.486   0.475   0.510   0.473   0.465   0.446   0.420   0.435   0.479   0.488   0.477   0.447   0.500   0.496   0.496   0.469   0.439   0.439   0.448   0.449   0.448   0.469   0.450   0.452   0.474
    56.80    0.561   0.549   0.523   0.526   0.539   0.548   0.552   0.546   0.555   0.516   0.487   0.487   0.483   0.489   0.458   0.452   0.433   0.455   0.465   0.471   0.474   0.451   0.465   0.477   0.486   0.481   0.435   0.450   0.457   0.458   0.463   0.457   0.465   0.483   0.501
    52.15    0.525   0.527   0.544   0.537   0.549   0.538   0.559   0.559   0.543   0.536   0.513   0.482   0.467   0.470   0.470   0.428   0.451   0.460   0.479   0.450   0.450   0.458   0.464   0.449   0.467   0.468   0.430   0.444   0.454   0.452   0.427   0.439   0.456   0.482   0.480
    47.50    0.566   0.568   0.558   0.552   0.555   0.565   0.551   0.565   0.563   0.544   0.518   0.479   0.445   0.445   0.444   0.446   0.437   0.463   0.447   0.434   0.471   0.481   0.450   0.446   0.467   0.465   0.440   0.454   0.469   0.457   0.446   0.432   0.448   0.470   0.453
    42.85    0.556   0.573   0.562   0.558   0.586   0.533   0.542   0.524   0.516   0.529   0.519   0.474   0.463   0.441   0.445   0.447   0.432   0.444   0.438   0.464   0.464   0.501   0.477   0.453   0.447   0.443   0.457   0.439   0.437   0.459   0.448   0.454   0.441   0.465   0.451
    38.20    0.517   0.542   0.553   0.552   0.570   0.528   0.497   0.500   0.516   0.516   0.493   0.494   0.454   0.425   0.441   0.455   0.456   0.453   0.473   0.478   0.454   0.447   0.466   0.476   0.459   0.457   0.471   0.475   0.452   0.465   0.469   0.476   0.465   0.441   0.440
    33.55    0.568   0.554   0.521   0.566   0.548   0.536   0.516   0.520   0.486   0.502   0.522   0.486   0.471   0.429   0.412   0.438   0.468   0.469   0.459   0.464   0.465   0.454   0.461   0.453   0.483   0.462   0.466   0.437   0.423   0.460   0.467   0.457   0.459   0.440   0.453
    28.90    0.561   0.534   0.557   0.558   0.557   0.553   0.530   0.503   0.533   0.483   0.517   0.502   0.466   0.475   0.453   0.456   0.476   0.463   0.466   0.458   0.474   0.455   0.456   0.466   0.468   0.438   0.452   0.439   0.431   0.435   0.460   0.451   0.450   0.443   0.447
    24.25    0.531   0.537   0.526   0.538   0.536   0.544   0.527   0.513   0.509   0.524   0.489   0.492   0.469   0.486   0.458   0.458   0.466   0.461   0.478   0.472   0.468   0.447   0.461   0.457   0.478   0.461   0.423   0.435   0.436   0.434   0.452   0.443   0.427   0.430   0.410
    19.60    0.551   0.541   0.513   0.501   0.494   0.520   0.514   0.527   0.521   0.497   0.480   0.479   0.478   0.478   0.477   0.496   0.479   0.479   0.455   0.468   0.460   0.458   0.474   0.453   0.471   0.448   0.459   0.435   0.452   0.434   0.458   0.425   0.415   0.438   0.424
    14.95    0.525   0.517   0.508   0.523   0.522   0.501   0.519   0.510   0.510   0.501   0.482   0.491   0.477   0.486   0.522   0.529   0.484   0.470   0.439   0.486   0.488   0.486   0.465   0.486   0.472   0.436   0.464   0.460   0.434   0.419   0.453   0.435   0.394   0.430   0.433
    10.30    0.506   0.493   0.505   0.518   0.517   0.494   0.508   0.493   0.458   0.469   0.495   0.498   0.520   0.501   0.517   0.513   0.484   0.503   0.473   0.519   0.506   0.484   0.506   0.508   0.480   0.476   0.493   0.468   0.490   0.462   0.472   0.458   0.431   0.410   0.444
     5.65    0.472   0.475   0.513   0.514   0.508   0.503   0.468   0.476   0.441   0.459   0.473   0.494   0.484   0.465   0.511   0.521   0.511   0.499   0.505   0.499   0.509   0.489   0.507   0.518   0.495   0.480   0.497   0.481   0.475   0.455   0.470   0.467   0.464   0.449   0.432
     1.00    0.486   0.489   0.506   0.521   0.489   0.499   0.477   0.495   0.473   0.476   0.457   0.492   0.489   0.477   0.500   0.530   0.515   0.520   0.509   0.526   0.523   0.498   0.520   0.502   0.506   0.521   0.524   0.491   0.487   0.472   0.467   0.478   0.492   0.500   0.471

   Height   Standard deviation at grid points for the w component:
   168.40    0.290   0.295   0.304   0.298   0.293   0.297   0.292   0.297   0.273   0.274   0.281   0.282   0.285   0.279   0.277   0.284   0.284   0.273   0.279   0.286   0.281   0.283   0.281   0.283   0.284   0.288   0.283   0.289   0.293   0.296   0.280   0.292   0.302   0.303   0.296
   163.75    0.287   0.291   0.299   0.296   0.296   0.294   0.300   0.292   0.281   0.276   0.271   0.278   0.277   0.277   0.279   0.281   0.277   0.281   0.282   0.285   0.285   0.280   0.295   0.287   0.283   0.294   0.285   0.280   0.293   0.298   0.305   0.305   0.307   0.313   0.305
   159.10    0.288   0.294   0.304   0.306   0.304   0.296   0.301   0.297   0.281   0.281   0.265   0.281   0.267   0.284   0.287   0.276   0.279   0.285   0.298   0.291   0.283   0.289   0.287   0.284   0.294   0.293   0.288   0.289   0.298   0.297   0.303   0.315   0.305   0.308   0.307
   154.45    0.292   0.288   0.304   0.311   0.299   0.301   0.297   0.291   0.288   0.281   0.284   0.285   0.294   0.285   0.283   0.279   0.268   0.277   0.286   0.280   0.287   0.282   0.284   0.290   0.297   0.290   0.287   0.280   0.304   0.311   0.310   0.304   0.304   0.296   0.295
   149.80    0.297   0.307   0.310   0.308   0.303   0.304   0.292   0.296   0.290   0.290   0.288   0.275   0.283   0.282   0.281   0.271   0.272   0.278   0.290   0.286   0.289   0.292   0.287   0.302   0.292   0.292   0.283   0.297   0.303   0.295   0.306   0.289   0.297   0.312   0.309
   145.15    0.304   0.299   0.311   0.307   0.306   0.295   0.302   0.302   0.297   0.295   0.293   0.288   0.284   0.288   0.285   0.283   0.277   0.272   0.284   0.286   0.288   0.282   0.293   0.301   0.293   0.290   0.299   0.306   0.297   0.288   0.295   0.295   0.304   0.312   0.312
   140.50    0.294   0.294   0.300   0.302   0.291   0.296   0.293   0.294   0.291   0.302   0.294   0.282   0.285   0.300   0.283   0.280   0.273   0.275   0.276   0.273   0.285   0.286   0.292   0.296   0.299   0.304   0.316   0.316   0.299   0.299   0.302   0.299   0.304   0.302   0.305
   135.85    0.290   0.297   0.299   0.297   0.293   0.283   0.288   0.293   0.294   0.301   0.287   0.278   0.284   0.289   0.286   0.286   0.274   0.281   0.277   0.258   0.284   0.293   0.308   0.305   0.302   0.303   0.318   0.320   0.308   0.313   0.312   0.306   0.304   0.310   0.298
   131.20    0.289   0.298   0.296   0.293   0.291   0.280   0.279   0.284   0.291   0.295   0.290   0.288   0.288   0.291   0.297   0.290   0.275   0.272   0.274   0.289   0.275   0.285   0.297   0.293   0.294   0.304   0.295   0.300   0.301   0.320   0.308   0.303   0.303   0.300   0.304
   126.55    0.294   0.290   0.297   0.297   0.298   0.287   0.292   0.281   0.285   0.303   0.296   0.296   0.303   0.292   0.294   0.286   0.275   0.283   0.289   0.288   0.273   0.280   0.283   0.293   0.288   0.290   0.296   0.288   0.308   0.304   0.296   0.304   0.289   0.300   0.306
   121.90    0.293   0.301   0.308   0.300   0.300   0.290   0.290   0.285   0.294   0.294   0.291   0.306   0.300   0.290   0.297   0.293   0.289   0.294   0.292   0.293   0.275   0.276   0.279   0.284   0.285   0.292   0.285   0.280   0.295   0.298   0.286   0.290   0.303   0.306   0.299
   117.25    0.308   0.308   0.303   0.299   0.299   0.304   0.288   0.301   0.312   0.308   0.303   0.297   0.304   0.302   0.312   0.302   0.288   0.293   0.290   0.296   0.278   0.269   0.273   0.276   0.283   0.283   0.270   0.277   0.300   0.305   0.304   0.309   0.296   0.290   0.293
   112.60    0.302   0.303   0.302   0.300   0.302   0.299   0.297   0.309   0.307   0.314   0.292   0.290   0.304   0.307   0.300   0.303   0.299   0.296   0.281   0.291   0.282   0.275   0.272   0.281   0.287   0.282   0.275   0.284   0.303   0.300   0.306   0.304   0.293   0.283   0.280
   107.95    0.303   0.317   0.298   0.301   0.301   0.308   0.300   0.302   0.297   0.304   0.294   0.291   0.306   0.319   0.304   0.300   0.299   0.301   0.293   0.301   0.293   0.289   0.276   0.288   0.277   0.272   0.285   0.281   0.293   0.302   0.308   0.296   0.280   0.275   0.284
   103.30    0.307   0.298   0.293   0.296   0.293   0.297   0.299   0.286   0.297   0.291   0.293   0.294   0.302   0.314   0.292   0.297   0.303   0.319   0.308   0.303   0.298   0.301   0.285   0.291   0.283   0.274   0.272   0.284   0.295   0.299   0.303   0.297   0.291   0.290   0.277
    98.65    0.313   0.300   0.298   0.296   0.283   0.299   0.294   0.293   0.302   0.310   0.305   0.305   0.303   0.296   0.300   0.310   0.305   0.318   0.315   0.298   0.304   0.302   0.289   0.284   0.284   0.285   0.279   0.286   0.294   0.294   0.294   0.296   0.302   0.299   0.284
    94.00    0.303   0.297   0.293   0.297   0.302   0.294   0.292   0.292   0.295   0.305   0.312   0.306   0.298   0.304   0.300   0.314   0.297   0.299   0.303   0.315   0.296   0.288   0.282   0.273   0.275   0.275   0.282   0.285   0.288   0.286   0.292   0.288   0.286   0.299   0.291
    89.35    0.298   0.290   0.295   0.288   0.303   0.302   0.290   0.291   0.292   0.300   0.312   0.314   0.305   0.297   0.299   0.300   0.296   0.302   0.316   0.304   0.291   0.276   0.273   0.285   0.290   0.293   0.289   0.279   0.291   0.291   0.280   0.280   0.295   0.299   0.297
    84.70    0.297   0.292   0.299   0.302   0.298   0.298   0.292   0.289   0.296   0.294   0.301   0.309   0.294   0.300   0.288   0.297   0.300   0.305   0.294   0.299   0.290   0.278   0.285   0.294   0.302   0.302   0.288   0.285   0.281   0.278   0.286   0.291   0.291   0.300   0.302
    80.05    0.305   0.303   0.302   0.296   0.300   0.299   0.300   0.302   0.302   0.302   0.307   0.320   0.305   0.300   0.295   0.292   0.304   0.315   0.307   0.312   0.302   0.298   0.295   0.299   0.301   0.297   0.287   0.282   0.281   0.281   0.280   0.290   0.294   0.285   0.300
    75.40    0.294   0.301   0.296   0.296   0.293   0.300   0.303   0.304   0.305   0.317   0.311   0.317   0.308   0.305   0.299   0.298   0.302   0.297   0.293   0.308   0.308   0.289   0.295   0.305   0.300   0.286   0.276   0.282   0.272   0.284   0.287   0.283   0.297   0.286   0.293
    70.75    0.293   0.303   0.298   0.301   0.291   0.297   0.309   0.306   0.303   0.319   0.312   0.306   0.307   0.306   0.307   0.308   0.302   0.302   0.301   0.285   0.304   0.298   0.300   0.297   0.300   0.285   0.279   0.265   0.282   0.279   0.282   0.285   0.293   0.292   0.305
    66.10    0.297   0.304   0.301   0.296   0.295   0.292   0.302   0.308   0.310   0.314   0.314   0.312   0.304   0.297   0.304   0.310   0.317   0.305   0.298   0.301   0.299   0.281   0.297   0.294   0.290   0.285   0.297   0.298   0.300   0.288   0.281   0.287   0.289   0.294   0.305
    61.45    0.288   0.302   0.307   0.302   0.301   0.297   0.299   0.313   0.323   0.315   0.308   0.301   0.311   0.316   0.305   0.307   0.306   0.312   0.302   0.305   0.289   0.285   0.294   0.296   0.298   0.300   0.299   0.297   0.302   0.285   0.286   0.285   0.296   0.298   0.297
    56.80    0.307   0.304   0.300   0.296   0.296   0.301   0.310   0.319   0.308   0.309   0.317   0.320   0.305   0.323   0.318   0.306   0.306   0.305   0.310   0.296   0.297   0.301   0.295   0.293   0.306   0.303   0.307   0.308   0.292   0.288   0.291   0.288   0.281   0.294   0.305
    52.15    0.311   0.299   0.287   0.299   0.301   0.307   0.316   0.310   0.311   0.303   0.309   0.305   0.311   0.331   0.324   0.309   0.316   0.310   0.316   0.302   0.301   0.299   0.287   0.290   0.305   0.309   0.309   0.314   0.295   0.295   0.290   0.299   0.293   0.297   0.308
    47.50    0.315   0.298   0.288   0.292   0.292   0.305   0.301   0.308   0.312   0.310   0.306   0.301   0.319   0.321   0.326   0.327   0.316   0.301   0.304   0.312   0.309   0.303   0.293   0.298   0.309   0.309   0.302   0.299   0.304   0.304   0.303   0.304   0.292   0.296   0.301
    42.85    0.317   0.313   0.314   0.302   0.300   0.303   0.313   0.329   0.324   0.326   0.313   0.308   0.313   0.330   0.333   0.310   0.319   0.305   0.311   0.318   0.324   0.308   0.311   0.315   0.320   0.312   0.313   0.302   0.302   0.311   0.314   0.302   0.299   0.299   0.309
    38.20    0.307   0.308   0.307   0.305   0.311   0.307   0.306   0.308   0.322   0.317   0.326   0.317   0.323   0.317   0.305   0.305   0.312   0.313   0.309   0.315   0.323   0.313   0.317   0.321   0.316   0.318   0.307   0.297   0.303   0.296   0.312   0.306   0.298   0.287   0.297
    33.55    0.302   0.304   0.305   0.301   0.309   0.307   0.328   0.317   0.309   0.319   0.307   0.320   0.323   0.310   0.303   0.310   0.304   0.305   0.320   0.311   0.318   0.316   0.306   0.313   0.308   0.304   0.318   0.309   0.296   0.294   0.305   0.305   0.286   0.304   0.290
    28.90    0.311   0.316   0.306   0.300   0.311   0.309   0.310   0.306   0.319   0.325   0.318   0.321   0.316   0.319   0.301   0.301   0.310   0.317   0.321   0.314   0.317   0.327   0.331   0.335   0.313   0.305   0.313   0.311   0.290   0.292   0.294   0.309   0.299   0.294   0.295
    24.25    0.304   0.304   0.316   0.316   0.300   0.310   0.303   0.315   0.310   0.309   0.318   0.317   0.321   0.306   0.310   0.308   0.310   0.309   0.316   0.307   0.308   0.317   0.329   0.327   0.310   0.312   0.312   0.306   0.288   0.295   0.297   0.306   0.313   0.307   0.295
    19.60    0.300   0.304   0.300   0.296   0.305   0.300   0.313   0.321   0.304   0.304   0.312   0.313   0.313   0.305   0.305   0.313   0.319   0.319   0.314   0.301   0.316   0.314   0.326   0.309   0.311   0.317   0.313   0.304   0.298   0.293   0.301   0.301   0.305   0.303   0.300
    14.95    0.305   0.299   0.301   0.306   0.305   0.304   0.314   0.317   0.313   0.300   0.298   0.308   0.308   0.308   0.322   0.311   0.319   0.319   0.322   0.310   0.303   0.321   0.319   0.311   0.303   0.304   0.308   0.301   0.295   0.294   0.296   0.295   0.312   0.311   0.304
    10.30    0.321   0.310   0.295   0.299   0.300   0.311   0.317   0.317   0.308   0.308   0.302   0.299   0.306   0.311   0.326   0.316   0.325   0.319   0.326   0.314   0.311   0.311   0.305   0.314   0.306   0.304   0.308   0.296   0.291   0.280   0.307   0.300   0.306   0.317   0.309
     5.65    0.315   0.303   0.298   0.300   0.309   0.306   0.311   0.317   0.300   0.318   0.309   0.307   0.311   0.309   0.307   0.317   0.314   0.309   0.310   0.313   0.300   0.317   0.316   0.321   0.321   0.312   0.316   0.307   0.295   0.291   0.301   0.315   0.312   0.311   0.310
     1.00    0.310   0.309   0.303   0.290   0.310   0.321   0.316   0.319   0.317   0.318   0.324   0.313   0.314   0.305   0.308   0.312   0.305   0.302   0.308   0.310   0.311   0.325   0.320   0.325   0.309   0.308   0.324   0.323   0.307   0.305   0.299   0.307   0.313   0.321   0.329

   Mean standard deviation across all grid points:
      u component:    0.514 m/s
      v component:    0.474 m/s
      w component:    0.299 m/s


U-component (X) statistics from the interpolated hub point:

   Mean =   9.9913 m/s
   TI   =   5.3432 %


Processing complete.  6013.6 CPU seconds used.
