
This summary file was generated by TurbSim (from OpenFAST-v3.5.3) on 20-Apr-2025 at 04:30:05.


Runtime Options:

 916078875  Random seed #1
    RANLUX  Type of random number generator
         F  Output binary HH turbulence parameters?
         F  Output formatted turbulence parameters?
         F  Output AeroDyn HH files?
         T  Output AeroDyn FF files?
         F  Output BLADED FF files?
         F  Output tower data?
         F  Output HAWC FF files?
         F  Output formatted FF files?
         T  Output coherent turbulence time step file?
 0 -  NONE  IEC turbulence models scaled to exact specified standard deviation


Turbine/Model Specifications:

        37  Vertical grid-point matrix dimension
        35  Horizontal grid-point matrix dimension
     0.250  Time step [seconds]
   900.000  Analysis time [seconds]
   900.000  Usable output time [seconds]
    89.350  Hub height [m]
   167.400  Grid height [m]
   158.100  Grid width [m]
     0.000  Vertical flow angle [degrees]
     0.000  Horizontal flow angle [degrees]


Meteorological Boundary Conditions:

    TIMESR  User-input time series spectral model
       N/A  IEC standard
       N/A  IEC turbulence characteristic
       N/A  IEC turbulence type
       N/A  IEC Extreme Turbulence Model (ETM) "c" parameter [m/s]
       PL   Wind profile type
    90.000  Reference height [m]
    10.000  Reference wind speed [m/s]
       N/A  Jet height [m]
     0.120  Power law exponent
     0.030  Surface roughness length [m]


Non-IEC Meteorological Boundary Conditions:

    45.000  Site latitude [degrees]
     0.050  Gradient Richardson number
     0.480  Friction or shear velocity [m/s]
       N/A  Mixing layer depth [m]
       N/A  Mean hub u'w' Reynolds stress
       N/A  Mean hub u'v' Reynolds stress
       N/A  Mean hub v'w' Reynolds stress


Spatial Coherence Models:

       IEC  u-component coherence model
       IEC  v-component coherence model
       IEC  w-component coherence model
(   12.000, 0.353E-03)  u-component coherence parameters
(   12.000, 0.353E-03)  v-component coherence parameters
(   12.000, 0.353E-03)  w-component coherence parameters
       N/A  Coherence exponent


Coherent Turbulence Scaling Parameters:

.\EventData
            Name of the path containing the coherent turbulence data files
       les  Type of coherent turbulence data files
     1.000  Disturbance scale (ratio of wave height to rotor diameter)
     0.500  Fractional location of tower centerline from right
     0.500  Fractional location of hub height from the bottom of the dataset
    30.000  Minimum start time for coherent structures [seconds]


Profiles from User-Defined Time-Series Input:

  Height   Wind Speed   Horizontal Angle   Vertical Angle
   (m)        (m/s)          (deg)              (deg)    
  ------   ----------   ----------------   --------------
   94.00      10.00          -0.63                0.00


You have requested that the following file(s) be generated:

   /kfs3/scratch/agupta/Projects/RL_Incubator/FinalRuns_Veer/Seed4/./FFSim_Seed4/Cond00_v10.0_PL0.12_TI6.0/Case1_wdirp02/Seed_0/TurbSim/HighT2.bts (AeroDyn/TurbSim full-field wind file)


Turbulence Simulation Scaling Parameter Summary:

   Turbulence model used                            =  User-input time series
   Gradient Richardson number                       =    0.050
   Monin-Obukhov (M-O) z/L parameter                =    0.067
   Monin-Obukhov (M-O) length scale                 = 1340.250 m
   Mean wind speed at hub height                    =    9.991 m/s

   Wind profile type                                =  Power law
   Power law exponent                               =    0.120
   Mean shear across rotor disk                     =    0.019 (m/s)/m
   Assumed rotor diameter                           =  158.100 m
   Surface roughness length                         =    0.030 m

   Nyquist frequency of turbulent wind field        =    2.000 Hz

   Number of time steps in the FFT                  =     3600
   Number of time steps output                      =     3600
   Number of points simulated                       =     1296


Mean Flow Angles:

   Vertical   =   0.0 degrees
   Horizontal =   0.0 degrees

Mean Wind Speed Profile:

   Height    Wind Speed   Horizontal Angle  Vertical Angle  U-comp (X)   V-comp (Y)   W-comp (Z)
     (m)        (m/s)         (degrees)       (degrees)       (m/s)        (m/s)        (m/s)   
   ------    ----------   ----------------  --------------  ----------   ----------   ----------
    168.4       10.78            0.00            0.00         10.78         0.00         0.00
    163.7       10.74            0.00            0.00         10.74         0.00         0.00
    159.1       10.71            0.00            0.00         10.71         0.00         0.00
    154.4       10.67            0.00            0.00         10.67         0.00         0.00
    149.8       10.63            0.00            0.00         10.63         0.00         0.00
    145.1       10.59            0.00            0.00         10.59         0.00         0.00
    140.5       10.55            0.00            0.00         10.55         0.00         0.00
    135.8       10.51            0.00            0.00         10.51         0.00         0.00
    131.2       10.46            0.00            0.00         10.46         0.00         0.00
    126.5       10.42            0.00            0.00         10.42         0.00         0.00
    121.9       10.37            0.00            0.00         10.37         0.00         0.00
    117.2       10.32            0.00            0.00         10.32         0.00         0.00
    112.6       10.27            0.00            0.00         10.27         0.00         0.00
    107.9       10.22            0.00            0.00         10.22         0.00         0.00
    103.3       10.17            0.00            0.00         10.17         0.00         0.00
     98.6       10.11            0.00            0.00         10.11         0.00         0.00
     94.0       10.05            0.00            0.00         10.05         0.00         0.00
     89.3        9.99            0.00            0.00          9.99         0.00         0.00
     84.7        9.93            0.00            0.00          9.93         0.00         0.00
     80.0        9.86            0.00            0.00          9.86         0.00         0.00
     75.4        9.79            0.00            0.00          9.79         0.00         0.00
     70.7        9.72            0.00            0.00          9.72         0.00         0.00
     66.1        9.64            0.00            0.00          9.64         0.00         0.00
     61.4        9.55            0.00            0.00          9.55         0.00         0.00
     56.8        9.46            0.00            0.00          9.46         0.00         0.00
     52.1        9.37            0.00            0.00          9.37         0.00         0.00
     47.5        9.26            0.00            0.00          9.26         0.00         0.00
     42.8        9.15            0.00            0.00          9.15         0.00         0.00
     38.2        9.02            0.00            0.00          9.02         0.00         0.00
     33.5        8.88            0.00            0.00          8.88         0.00         0.00
     28.9        8.73            0.00            0.00          8.73         0.00         0.00
     24.2        8.54            0.00            0.00          8.54         0.00         0.00
     19.6        8.33            0.00            0.00          8.33         0.00         0.00
     14.9        8.06            0.00            0.00          8.06         0.00         0.00
     10.3        7.71            0.00            0.00          7.71         0.00         0.00
      5.6        7.17            0.00            0.00          7.17         0.00         0.00
      1.0        5.83            0.00            0.00          5.83         0.00         0.00


Harvested Random Seeds after Generation of the Random Numbers:

     65026800 K 1
            0 K 2


Hub-Height Simulated Turbulence Statistical Summary:

   Type of Wind        Min (m/s)   Mean (m/s)    Max (m/s)  Sigma (m/s)       TI (%)
   ----------------    ---------   ----------    ---------  -----------       ------
   Longitudinal (u)         8.10         9.99        12.02        0.712        7.124
   Lateral (v)             -1.55        -0.00         1.38        0.439        4.398
   Vertical (w)            -0.90         0.00         1.09        0.303        3.037
   U component              8.10         9.99        12.02        0.712        7.124
   V component             -1.55        -0.00         1.38        0.439        4.398
   W component             -0.90         0.00         1.09        0.303        3.037
   Horizontal (U&V)         8.13        10.00        12.02        0.711        7.107
   Total                    8.13        10.01        12.03        0.711        7.101

                       Min Reynolds     Mean Reynolds    Max Reynolds    Correlation
   Product             Stress (m/s)^2   Stress (m/s)^2   Stress (m/s)^2  Coefficient
   ----------------    --------------   --------------   --------------  -----------
   u'w'                     -1.382            -0.015             1.306        -0.072
   u'v'                     -1.879            -0.036             1.485        -0.115
   v'w'                     -0.782            -0.010             0.631        -0.074


   Friction Velocity (Ustar)  =      0.124 m/s
   Maximum Instantaneous TKE  =      2.249 (m/s)^2
   Maximum Instantaneous CTKE =      0.969 (m/s)^2


Grid Point Variance Summary:

   Y-coord  -79.05  -74.40  -69.75  -65.10  -60.45  -55.80  -51.15  -46.50  -41.85  -37.20  -32.55  -27.90  -23.25  -18.60  -13.95   -9.30   -4.65    0.00    4.65    9.30   13.95   18.60   23.25   27.90   32.55   37.20   41.85   46.50   51.15   55.80   60.45   65.10   69.75   74.40   79.05

   Height   Standard deviation at grid points for the u component:
   168.40    0.712   0.668   0.644   0.630   0.612   0.577   0.557   0.633   0.590   0.574   0.628   0.653   0.623   0.637   0.606   0.589   0.574   0.576   0.588   0.633   0.554   0.545   0.518   0.468   0.447   0.460   0.456   0.544   0.589   0.529   0.569   0.605   0.589   0.578   0.582
   163.75    0.698   0.719   0.678   0.627   0.588   0.536   0.600   0.641   0.613   0.582   0.645   0.614   0.658   0.628   0.614   0.613   0.634   0.608   0.650   0.604   0.570   0.579   0.522   0.453   0.440   0.469   0.489   0.542   0.563   0.561   0.555   0.622   0.630   0.609   0.613
   159.10    0.666   0.731   0.665   0.634   0.600   0.577   0.572   0.615   0.637   0.619   0.665   0.608   0.624   0.626   0.680   0.690   0.651   0.618   0.641   0.618   0.591   0.568   0.544   0.487   0.513   0.507   0.519   0.570   0.593   0.567   0.613   0.589   0.614   0.590   0.568
   154.45    0.709   0.742   0.710   0.683   0.657   0.593   0.577   0.604   0.620   0.634   0.636   0.603   0.592   0.615   0.626   0.685   0.658   0.625   0.633   0.644   0.599   0.563   0.547   0.538   0.561   0.562   0.545   0.541   0.581   0.559   0.595   0.597   0.600   0.597   0.585
   149.80    0.750   0.772   0.768   0.665   0.642   0.628   0.607   0.538   0.623   0.632   0.601   0.563   0.613   0.625   0.594   0.641   0.656   0.616   0.588   0.595   0.599   0.568   0.562   0.551   0.562   0.548   0.557   0.605   0.601   0.624   0.581   0.578   0.554   0.600   0.625
   145.15    0.738   0.742   0.730   0.690   0.671   0.615   0.602   0.576   0.619   0.627   0.628   0.586   0.579   0.574   0.574   0.587   0.628   0.588   0.549   0.585   0.589   0.567   0.498   0.538   0.559   0.583   0.608   0.607   0.626   0.571   0.580   0.547   0.548   0.579   0.622
   140.50    0.732   0.739   0.736   0.709   0.650   0.645   0.632   0.660   0.617   0.589   0.625   0.607   0.571   0.596   0.596   0.619   0.614   0.626   0.576   0.574   0.597   0.583   0.568   0.544   0.579   0.588   0.632   0.607   0.609   0.566   0.535   0.537   0.606   0.634   0.639
   135.85    0.684   0.721   0.747   0.719   0.663   0.634   0.613   0.656   0.635   0.663   0.669   0.635   0.604   0.585   0.600   0.615   0.601   0.668   0.613   0.565   0.565   0.539   0.540   0.586   0.590   0.595   0.593   0.575   0.662   0.586   0.568   0.550   0.564   0.660   0.682
   131.20    0.662   0.690   0.698   0.698   0.675   0.652   0.664   0.668   0.613   0.610   0.677   0.682   0.693   0.648   0.626   0.623   0.607   0.635   0.634   0.584   0.562   0.559   0.549   0.587   0.611   0.603   0.631   0.630   0.663   0.596   0.626   0.578   0.587   0.638   0.693
   126.55    0.641   0.677   0.705   0.739   0.698   0.724   0.687   0.692   0.688   0.673   0.748   0.703   0.675   0.664   0.608   0.589   0.561   0.552   0.546   0.596   0.583   0.550   0.582   0.655   0.621   0.628   0.605   0.628   0.602   0.581   0.574   0.573   0.547   0.585   0.670
   121.90    0.680   0.723   0.727   0.758   0.738   0.765   0.684   0.670   0.716   0.770   0.778   0.686   0.709   0.633   0.632   0.570   0.518   0.525   0.542   0.566   0.579   0.566   0.586   0.630   0.635   0.573   0.597   0.608   0.548   0.516   0.563   0.523   0.504   0.552   0.630
   117.25    0.719   0.705   0.749   0.721   0.744   0.701   0.684   0.743   0.790   0.807   0.773   0.730   0.707   0.690   0.606   0.543   0.595   0.530   0.524   0.602   0.567   0.550   0.608   0.600   0.570   0.564   0.596   0.517   0.579   0.511   0.564   0.577   0.549   0.576   0.632
   112.60    0.704   0.764   0.734   0.781   0.736   0.711   0.745   0.734   0.754   0.786   0.820   0.820   0.746   0.711   0.617   0.544   0.568   0.545   0.576   0.566   0.548   0.586   0.566   0.584   0.594   0.585   0.561   0.538   0.601   0.596   0.555   0.559   0.609   0.592   0.645
   107.95    0.650   0.751   0.796   0.787   0.804   0.796   0.772   0.740   0.763   0.795   0.779   0.785   0.756   0.720   0.619   0.569   0.570   0.528   0.570   0.553   0.556   0.547   0.591   0.549   0.558   0.561   0.570   0.603   0.661   0.586   0.585   0.639   0.609   0.639   0.625
   103.30    0.712   0.732   0.781   0.842   0.847   0.806   0.841   0.802   0.809   0.834   0.793   0.719   0.758   0.710   0.644   0.591   0.600   0.594   0.590   0.583   0.560   0.552   0.578   0.575   0.578   0.568   0.540   0.588   0.594   0.599   0.589   0.599   0.588   0.664   0.631
    98.65    0.741   0.763   0.826   0.824   0.848   0.878   0.882   0.861   0.845   0.858   0.846   0.810   0.772   0.776   0.709   0.633   0.678   0.673   0.610   0.600   0.567   0.613   0.577   0.555   0.588   0.585   0.503   0.551   0.585   0.602   0.635   0.611   0.600   0.660   0.674
    94.00    0.794   0.787   0.798   0.807   0.877   0.937   0.979   0.897   0.874   0.830   0.869   0.861   0.765   0.745   0.706   0.665   0.673   0.657   0.619   0.619   0.614   0.627   0.607   0.568   0.567   0.575   0.543   0.513   0.529   0.611   0.644   0.648   0.582   0.588   0.619
    89.35    0.744   0.769   0.847   0.840   0.890   0.894   0.927   0.922   0.918   0.900   0.899   0.835   0.739   0.699   0.734   0.686   0.695   0.712   0.678   0.644   0.618   0.648   0.623   0.621   0.643   0.613   0.567   0.552   0.581   0.650   0.680   0.641   0.608   0.601   0.601
    84.70    0.786   0.801   0.835   0.821   0.896   0.862   0.894   0.848   0.905   0.868   0.822   0.817   0.783   0.750   0.761   0.698   0.686   0.717   0.711   0.754   0.680   0.654   0.634   0.648   0.614   0.635   0.620   0.557   0.612   0.647   0.647   0.704   0.650   0.633   0.590
    80.05    0.821   0.865   0.791   0.868   0.883   0.845   0.876   0.894   0.915   0.837   0.854   0.829   0.824   0.813   0.798   0.782   0.702   0.744   0.727   0.761   0.700   0.720   0.670   0.660   0.638   0.643   0.648   0.630   0.644   0.624   0.650   0.662   0.706   0.684   0.632
    75.40    0.778   0.777   0.844   0.863   0.817   0.843   0.870   0.904   0.881   0.883   0.818   0.763   0.776   0.739   0.758   0.726   0.741   0.778   0.742   0.727   0.792   0.708   0.736   0.777   0.764   0.742   0.705   0.721   0.680   0.715   0.715   0.736   0.742   0.676   0.661
    70.75    0.723   0.794   0.814   0.775   0.797   0.875   0.945   0.886   0.893   0.919   0.800   0.767   0.724   0.665   0.714   0.747   0.740   0.763   0.796   0.816   0.782   0.759   0.788   0.775   0.748   0.766   0.768   0.782   0.746   0.735   0.727   0.716   0.756   0.709   0.605
    66.10    0.697   0.739   0.794   0.770   0.835   0.868   0.875   0.898   0.890   0.882   0.814   0.794   0.786   0.742   0.713   0.748   0.805   0.812   0.741   0.805   0.764   0.819   0.758   0.790   0.726   0.757   0.824   0.887   0.834   0.804   0.828   0.819   0.792   0.787   0.668
    61.45    0.734   0.730   0.827   0.814   0.865   0.871   0.836   0.876   0.851   0.835   0.832   0.788   0.755   0.807   0.758   0.801   0.817   0.819   0.796   0.796   0.739   0.769   0.787   0.754   0.742   0.756   0.840   0.865   0.856   0.889   0.900   0.939   0.931   0.780   0.698
    56.80    0.682   0.747   0.859   0.866   0.877   0.810   0.866   0.894   0.875   0.915   0.841   0.850   0.786   0.778   0.799   0.816   0.748   0.774   0.744   0.729   0.762   0.730   0.746   0.710   0.665   0.772   0.869   0.838   0.805   0.839   0.888   0.897   0.885   0.769   0.739
    52.15    0.712   0.709   0.829   0.855   0.881   0.860   0.796   0.873   0.844   0.859   0.812   0.836   0.748   0.753   0.797   0.729   0.790   0.734   0.720   0.772   0.747   0.702   0.682   0.653   0.678   0.717   0.814   0.868   0.810   0.816   0.823   0.851   0.811   0.786   0.758
    47.50    0.671   0.732   0.858   0.812   0.876   0.810   0.828   0.879   0.879   0.871   0.785   0.743   0.775   0.802   0.828   0.736   0.764   0.752   0.760   0.700   0.732   0.749   0.707   0.687   0.760   0.782   0.837   0.840   0.794   0.764   0.750   0.745   0.737   0.758   0.686
    42.85    0.688   0.764   0.855   0.843   0.860   0.799   0.883   0.901   0.856   0.791   0.820   0.777   0.750   0.790   0.790   0.756   0.700   0.718   0.683   0.720   0.717   0.684   0.683   0.689   0.738   0.790   0.779   0.792   0.815   0.742   0.681   0.658   0.695   0.698   0.653
    38.20    0.671   0.779   0.861   0.858   0.833   0.849   0.866   0.885   0.819   0.817   0.864   0.810   0.730   0.739   0.733   0.680   0.676   0.666   0.665   0.660   0.671   0.631   0.611   0.675   0.687   0.703   0.726   0.716   0.755   0.688   0.637   0.647   0.687   0.638   0.661
    33.55    0.653   0.784   0.866   0.853   0.818   0.818   0.875   0.795   0.801   0.822   0.826   0.818   0.781   0.756   0.709   0.702   0.601   0.588   0.611   0.629   0.622   0.600   0.565   0.587   0.625   0.681   0.669   0.711   0.732   0.685   0.584   0.606   0.605   0.679   0.620
    28.90    0.691   0.798   0.870   0.830   0.783   0.785   0.801   0.817   0.753   0.764   0.812   0.826   0.744   0.727   0.734   0.692   0.625   0.588   0.618   0.591   0.621   0.590   0.610   0.615   0.615   0.647   0.686   0.711   0.702   0.638   0.585   0.599   0.640   0.634   0.619
    24.25    0.681   0.816   0.832   0.846   0.796   0.808   0.772   0.771   0.829   0.759   0.789   0.770   0.720   0.717   0.709   0.655   0.619   0.630   0.588   0.645   0.594   0.634   0.565   0.594   0.567   0.560   0.627   0.667   0.674   0.656   0.622   0.585   0.606   0.621   0.606
    19.60    0.701   0.790   0.854   0.895   0.887   0.868   0.855   0.800   0.818   0.818   0.757   0.717   0.777   0.748   0.698   0.698   0.634   0.596   0.601   0.625   0.654   0.587   0.604   0.593   0.612   0.579   0.626   0.628   0.643   0.595   0.599   0.591   0.603   0.609   0.607
    14.95    0.723   0.822   0.799   0.860   0.883   0.838   0.772   0.797   0.770   0.725   0.772   0.740   0.797   0.743   0.765   0.692   0.648   0.623   0.615   0.625   0.612   0.615   0.622   0.594   0.581   0.579   0.595   0.561   0.578   0.567   0.591   0.594   0.612   0.622   0.663
    10.30    0.677   0.751   0.804   0.861   0.898   0.857   0.844   0.798   0.773   0.752   0.745   0.751   0.741   0.759   0.773   0.691   0.639   0.673   0.679   0.674   0.634   0.625   0.618   0.554   0.579   0.591   0.597   0.542   0.537   0.539   0.595   0.659   0.618   0.589   0.633
     5.65    0.688   0.756   0.776   0.830   0.806   0.840   0.807   0.757   0.743   0.749   0.745   0.719   0.694   0.736   0.725   0.701   0.624   0.685   0.724   0.632   0.627   0.596   0.598   0.570   0.569   0.562   0.573   0.565   0.517   0.541   0.607   0.591   0.628   0.650   0.659
     1.00    0.705   0.728   0.803   0.821   0.768   0.781   0.783   0.786   0.801   0.789   0.793   0.740   0.766   0.737   0.766   0.701   0.669   0.701   0.660   0.668   0.594   0.611   0.642   0.580   0.608   0.591   0.548   0.562   0.528   0.554   0.597   0.589   0.642   0.688   0.698

   Height   Standard deviation at grid points for the v component:
   168.40    0.474   0.476   0.497   0.504   0.509   0.500   0.520   0.513   0.481   0.449   0.456   0.464   0.491   0.477   0.473   0.456   0.455   0.432   0.443   0.455   0.458   0.433   0.437   0.433   0.430   0.436   0.475   0.457   0.463   0.455   0.440   0.429   0.400   0.404   0.414
   163.75    0.490   0.483   0.504   0.524   0.533   0.520   0.498   0.493   0.483   0.467   0.454   0.491   0.503   0.485   0.453   0.456   0.444   0.451   0.438   0.448   0.449   0.419   0.429   0.436   0.411   0.432   0.452   0.459   0.454   0.433   0.424   0.433   0.411   0.408   0.405
   159.10    0.491   0.493   0.504   0.545   0.542   0.532   0.486   0.471   0.477   0.465   0.490   0.493   0.503   0.460   0.447   0.425   0.446   0.454   0.459   0.451   0.446   0.425   0.427   0.416   0.414   0.446   0.451   0.457   0.452   0.452   0.435   0.409   0.407   0.421   0.411
   154.45    0.469   0.530   0.537   0.551   0.578   0.543   0.524   0.496   0.484   0.491   0.478   0.492   0.493   0.455   0.449   0.454   0.468   0.461   0.440   0.466   0.446   0.411   0.420   0.425   0.437   0.428   0.434   0.437   0.441   0.436   0.416   0.426   0.426   0.425   0.413
   149.80    0.487   0.504   0.513   0.527   0.556   0.532   0.515   0.487   0.486   0.485   0.480   0.486   0.467   0.460   0.448   0.472   0.447   0.435   0.464   0.440   0.430   0.436   0.439   0.417   0.434   0.444   0.455   0.479   0.459   0.417   0.432   0.424   0.403   0.422   0.425
   145.15    0.462   0.476   0.501   0.505   0.541   0.532   0.525   0.491   0.487   0.515   0.477   0.478   0.473   0.461   0.445   0.449   0.457   0.451   0.462   0.477   0.462   0.451   0.439   0.425   0.446   0.437   0.465   0.469   0.455   0.435   0.445   0.426   0.429   0.404   0.412
   140.50    0.440   0.454   0.480   0.509   0.498   0.499   0.499   0.506   0.498   0.490   0.506   0.494   0.488   0.456   0.448   0.450   0.470   0.496   0.489   0.468   0.483   0.483   0.477   0.463   0.470   0.464   0.456   0.461   0.444   0.465   0.453   0.442   0.428   0.450   0.453
   135.85    0.450   0.440   0.452   0.479   0.486   0.474   0.461   0.476   0.476   0.495   0.500   0.496   0.460   0.476   0.482   0.473   0.476   0.478   0.490   0.478   0.479   0.486   0.461   0.460   0.456   0.456   0.444   0.453   0.462   0.442   0.439   0.457   0.439   0.447   0.443
   131.20    0.468   0.453   0.490   0.485   0.468   0.460   0.433   0.452   0.466   0.488   0.495   0.476   0.474   0.482   0.473   0.488   0.500   0.495   0.470   0.477   0.481   0.496   0.488   0.480   0.453   0.452   0.447   0.475   0.447   0.446   0.454   0.464   0.445   0.428   0.430
   126.55    0.455   0.472   0.470   0.470   0.459   0.466   0.443   0.448   0.469   0.484   0.469   0.480   0.431   0.454   0.474   0.471   0.470   0.484   0.474   0.469   0.467   0.498   0.500   0.473   0.432   0.440   0.441   0.473   0.466   0.468   0.468   0.467   0.450   0.443   0.440
   121.90    0.486   0.446   0.459   0.456   0.454   0.462   0.442   0.451   0.449   0.458   0.474   0.443   0.446   0.470   0.461   0.450   0.468   0.476   0.450   0.442   0.476   0.498   0.478   0.469   0.446   0.438   0.438   0.467   0.447   0.465   0.461   0.444   0.440   0.451   0.448
   117.25    0.490   0.464   0.446   0.458   0.456   0.479   0.432   0.429   0.454   0.455   0.444   0.449   0.453   0.449   0.466   0.464   0.457   0.456   0.453   0.449   0.479   0.494   0.477   0.458   0.452   0.456   0.458   0.457   0.453   0.462   0.456   0.432   0.448   0.437   0.428
   112.60    0.491   0.443   0.426   0.438   0.468   0.452   0.455   0.452   0.450   0.443   0.452   0.427   0.471   0.453   0.488   0.460   0.438   0.447   0.480   0.473   0.464   0.496   0.480   0.450   0.437   0.457   0.460   0.457   0.450   0.457   0.449   0.412   0.443   0.416   0.395
   107.95    0.479   0.447   0.455   0.461   0.474   0.484   0.463   0.482   0.482   0.441   0.437   0.451   0.450   0.448   0.472   0.460   0.428   0.428   0.448   0.450   0.460   0.463   0.489   0.485   0.442   0.447   0.475   0.483   0.471   0.467   0.427   0.441   0.426   0.409   0.430
   103.30    0.472   0.450   0.438   0.443   0.470   0.460   0.467   0.467   0.454   0.433   0.441   0.462   0.466   0.447   0.441   0.441   0.432   0.418   0.423   0.424   0.413   0.437   0.464   0.463   0.461   0.465   0.487   0.486   0.499   0.479   0.458   0.466   0.453   0.444   0.468
    98.65    0.470   0.445   0.448   0.462   0.483   0.453   0.469   0.454   0.449   0.423   0.433   0.445   0.443   0.402   0.416   0.422   0.419   0.427   0.433   0.422   0.407   0.413   0.460   0.467   0.478   0.489   0.497   0.505   0.477   0.460   0.454   0.468   0.436   0.463   0.475
    94.00    0.466   0.441   0.461   0.467   0.471   0.486   0.446   0.454   0.459   0.442   0.443   0.437   0.430   0.411   0.446   0.452   0.436   0.452   0.455   0.425   0.435   0.447   0.478   0.481   0.508   0.514   0.493   0.474   0.450   0.418   0.457   0.454   0.437   0.471   0.480
    89.35    0.474   0.472   0.477   0.457   0.456   0.494   0.476   0.430   0.458   0.461   0.442   0.434   0.429   0.432   0.453   0.428   0.419   0.439   0.475   0.461   0.435   0.453   0.469   0.463   0.474   0.490   0.498   0.453   0.441   0.446   0.443   0.432   0.446   0.457   0.475
    84.70    0.469   0.496   0.479   0.475   0.466   0.453   0.456   0.433   0.438   0.473   0.460   0.434   0.423   0.436   0.457   0.470   0.444   0.451   0.468   0.480   0.451   0.461   0.474   0.501   0.479   0.492   0.493   0.463   0.433   0.466   0.443   0.456   0.450   0.436   0.467
    80.05    0.485   0.463   0.465   0.476   0.439   0.436   0.443   0.434   0.466   0.476   0.467   0.430   0.430   0.438   0.460   0.461   0.470   0.457   0.468   0.478   0.471   0.469   0.466   0.495   0.472   0.467   0.452   0.432   0.448   0.450   0.443   0.449   0.441   0.447   0.462
    75.40    0.464   0.449   0.452   0.468   0.453   0.415   0.422   0.435   0.445   0.462   0.440   0.432   0.414   0.433   0.451   0.483   0.493   0.486   0.483   0.499   0.467   0.478   0.454   0.447   0.496   0.481   0.446   0.440   0.416   0.426   0.419   0.419   0.423   0.443   0.441
    70.75    0.440   0.439   0.446   0.437   0.436   0.428   0.420   0.441   0.435   0.449   0.448   0.434   0.456   0.426   0.452   0.477   0.490   0.474   0.471   0.477   0.479   0.477   0.451   0.444   0.468   0.477   0.457   0.421   0.430   0.440   0.415   0.423   0.425   0.436   0.446
    66.10    0.422   0.444   0.446   0.436   0.464   0.457   0.456   0.462   0.468   0.460   0.450   0.447   0.445   0.436   0.481   0.459   0.465   0.480   0.464   0.464   0.461   0.454   0.458   0.436   0.454   0.461   0.435   0.422   0.437   0.431   0.406   0.413   0.422   0.438   0.454
    61.45    0.425   0.423   0.421   0.427   0.445   0.466   0.453   0.459   0.464   0.443   0.448   0.441   0.459   0.440   0.474   0.465   0.435   0.454   0.477   0.470   0.457   0.436   0.446   0.439   0.466   0.450   0.447   0.459   0.437   0.422   0.426   0.447   0.428   0.429   0.461
    56.80    0.424   0.429   0.412   0.419   0.415   0.440   0.451   0.458   0.486   0.469   0.441   0.429   0.440   0.458   0.443   0.458   0.440   0.464   0.465   0.459   0.450   0.437   0.433   0.420   0.457   0.470   0.430   0.461   0.465   0.446   0.449   0.451   0.455   0.463   0.474
    52.15    0.425   0.416   0.429   0.429   0.434   0.432   0.462   0.464   0.477   0.464   0.447   0.429   0.454   0.445   0.433   0.425   0.447   0.478   0.482   0.458   0.459   0.451   0.430   0.427   0.437   0.460   0.445   0.452   0.480   0.461   0.456   0.453   0.463   0.476   0.466
    47.50    0.426   0.431   0.428   0.437   0.450   0.450   0.458   0.466   0.464   0.455   0.448   0.422   0.425   0.444   0.439   0.430   0.435   0.443   0.454   0.437   0.450   0.453   0.426   0.412   0.427   0.465   0.449   0.448   0.484   0.501   0.493   0.444   0.449   0.486   0.449
    42.85    0.414   0.427   0.435   0.422   0.453   0.421   0.431   0.457   0.429   0.448   0.430   0.400   0.425   0.427   0.450   0.471   0.448   0.448   0.446   0.461   0.458   0.468   0.460   0.445   0.445   0.476   0.456   0.452   0.450   0.493   0.481   0.457   0.466   0.480   0.477
    38.20    0.399   0.405   0.413   0.413   0.432   0.399   0.398   0.419   0.405   0.424   0.419   0.415   0.409   0.413   0.456   0.459   0.457   0.458   0.484   0.476   0.477   0.465   0.455   0.461   0.455   0.451   0.447   0.446   0.477   0.483   0.489   0.481   0.459   0.459   0.472
    33.55    0.413   0.388   0.375   0.404   0.412   0.412   0.387   0.414   0.384   0.411   0.423   0.406   0.421   0.400   0.426   0.458   0.474   0.473   0.465   0.439   0.463   0.474   0.465   0.439   0.453   0.425   0.439   0.431   0.440   0.471   0.485   0.443   0.449   0.444   0.474
    28.90    0.417   0.396   0.396   0.416   0.427   0.434   0.415   0.414   0.431   0.412   0.447   0.436   0.429   0.454   0.426   0.454   0.462   0.456   0.446   0.440   0.458   0.454   0.452   0.446   0.452   0.425   0.438   0.470   0.461   0.458   0.480   0.440   0.447   0.416   0.452
    24.25    0.396   0.404   0.417   0.422   0.422   0.449   0.425   0.412   0.422   0.434   0.422   0.437   0.456   0.483   0.438   0.454   0.461   0.441   0.441   0.454   0.456   0.436   0.454   0.458   0.461   0.462   0.430   0.434   0.438   0.437   0.457   0.440   0.440   0.431   0.434
    19.60    0.441   0.429   0.413   0.401   0.406   0.419   0.422   0.436   0.437   0.427   0.436   0.435   0.467   0.460   0.472   0.459   0.445   0.441   0.432   0.460   0.437   0.465   0.484   0.458   0.464   0.438   0.427   0.424   0.441   0.407   0.444   0.434   0.439   0.453   0.433
    14.95    0.426   0.412   0.392   0.414   0.440   0.428   0.436   0.432   0.423   0.440   0.458   0.473   0.460   0.474   0.470   0.476   0.445   0.456   0.437   0.476   0.476   0.482   0.468   0.462   0.440   0.427   0.440   0.434   0.430   0.405   0.435   0.423   0.415   0.434   0.444
    10.30    0.405   0.405   0.424   0.437   0.441   0.438   0.439   0.444   0.418   0.423   0.486   0.476   0.481   0.473   0.475   0.464   0.440   0.457   0.457   0.481   0.470   0.475   0.480   0.461   0.451   0.442   0.427   0.423   0.450   0.419   0.430   0.430   0.417   0.422   0.449
     5.65    0.399   0.427   0.426   0.440   0.450   0.451   0.406   0.435   0.421   0.430   0.459   0.494   0.471   0.465   0.490   0.482   0.483   0.456   0.473   0.484   0.461   0.456   0.466   0.475   0.430   0.436   0.419   0.415   0.427   0.417   0.428   0.423   0.433   0.432   0.444
     1.00    0.427   0.440   0.436   0.443   0.448   0.444   0.398   0.423   0.431   0.428   0.419   0.457   0.476   0.470   0.485   0.491   0.482   0.452   0.456   0.478   0.489   0.459   0.452   0.414   0.428   0.430   0.426   0.412   0.408   0.412   0.405   0.432   0.447   0.464   0.457

   Height   Standard deviation at grid points for the w component:
   168.40    0.289   0.290   0.282   0.279   0.276   0.274   0.276   0.282   0.266   0.273   0.279   0.281   0.276   0.285   0.275   0.287   0.283   0.276   0.279   0.284   0.282   0.291   0.283   0.281   0.282   0.299   0.286   0.296   0.278   0.288   0.288   0.296   0.292   0.293   0.289
   163.75    0.287   0.295   0.284   0.277   0.281   0.277   0.286   0.272   0.276   0.271   0.267   0.276   0.274   0.282   0.271   0.280   0.275   0.275   0.286   0.285   0.294   0.289   0.297   0.293   0.296   0.298   0.294   0.280   0.282   0.280   0.295   0.293   0.289   0.294   0.295
   159.10    0.291   0.294   0.286   0.295   0.290   0.286   0.291   0.285   0.281   0.283   0.260   0.275   0.272   0.275   0.278   0.266   0.262   0.274   0.283   0.284   0.285   0.299   0.296   0.295   0.298   0.301   0.291   0.287   0.290   0.286   0.288   0.294   0.297   0.291   0.297
   154.45    0.289   0.290   0.286   0.300   0.292   0.289   0.278   0.285   0.292   0.280   0.268   0.265   0.280   0.280   0.279   0.266   0.262   0.270   0.282   0.284   0.292   0.289   0.288   0.294   0.294   0.302   0.298   0.284   0.289   0.294   0.295   0.290   0.296   0.283   0.280
   149.80    0.291   0.297   0.296   0.296   0.302   0.300   0.292   0.288   0.282   0.278   0.274   0.257   0.264   0.270   0.278   0.266   0.276   0.279   0.298   0.287   0.291   0.297   0.285   0.294   0.292   0.293   0.284   0.291   0.284   0.286   0.293   0.289   0.294   0.294   0.283
   145.15    0.294   0.282   0.288   0.295   0.300   0.302   0.304   0.295   0.287   0.282   0.274   0.263   0.273   0.275   0.272   0.275   0.278   0.289   0.301   0.301   0.291   0.292   0.290   0.295   0.285   0.288   0.292   0.292   0.286   0.276   0.286   0.290   0.294   0.300   0.290
   140.50    0.289   0.285   0.284   0.287   0.289   0.294   0.295   0.295   0.281   0.285   0.284   0.266   0.278   0.281   0.276   0.284   0.281   0.275   0.284   0.296   0.294   0.293   0.284   0.285   0.290   0.293   0.305   0.302   0.288   0.288   0.293   0.296   0.291   0.292   0.293
   135.85    0.284   0.286   0.293   0.283   0.288   0.282   0.290   0.293   0.292   0.297   0.293   0.279   0.274   0.282   0.282   0.288   0.280   0.286   0.282   0.280   0.294   0.294   0.294   0.297   0.293   0.291   0.313   0.309   0.291   0.302   0.311   0.303   0.292   0.292   0.294
   131.20    0.288   0.287   0.289   0.281   0.281   0.278   0.274   0.281   0.281   0.286   0.291   0.290   0.293   0.289   0.282   0.289   0.291   0.280   0.288   0.283   0.278   0.282   0.287   0.293   0.296   0.300   0.302   0.297   0.297   0.306   0.303   0.302   0.297   0.293   0.300
   126.55    0.291   0.282   0.282   0.285   0.273   0.279   0.279   0.277   0.277   0.293   0.296   0.297   0.306   0.299   0.304   0.292   0.289   0.292   0.294   0.289   0.285   0.284   0.285   0.293   0.293   0.296   0.299   0.286   0.308   0.303   0.308   0.292   0.283   0.305   0.304
   121.90    0.287   0.281   0.293   0.285   0.291   0.282   0.271   0.274   0.283   0.287   0.291   0.299   0.295   0.307   0.314   0.309   0.292   0.295   0.283   0.285   0.279   0.283   0.283   0.283   0.294   0.299   0.304   0.296   0.305   0.308   0.304   0.298   0.309   0.305   0.306
   117.25    0.294   0.293   0.303   0.298   0.301   0.287   0.278   0.288   0.294   0.294   0.301   0.296   0.304   0.306   0.308   0.297   0.291   0.289   0.281   0.277   0.279   0.278   0.287   0.281   0.293   0.295   0.298   0.296   0.318   0.312   0.309   0.305   0.306   0.295   0.299
   112.60    0.296   0.293   0.297   0.298   0.295   0.291   0.283   0.296   0.291   0.291   0.283   0.288   0.305   0.306   0.298   0.287   0.288   0.290   0.289   0.293   0.282   0.285   0.296   0.283   0.301   0.308   0.304   0.309   0.310   0.311   0.312   0.306   0.302   0.299   0.300
   107.95    0.298   0.306   0.292   0.286   0.298   0.317   0.294   0.287   0.281   0.281   0.281   0.285   0.311   0.299   0.301   0.291   0.292   0.288   0.295   0.303   0.296   0.285   0.299   0.311   0.302   0.297   0.305   0.304   0.304   0.305   0.308   0.301   0.295   0.300   0.304
   103.30    0.301   0.295   0.283   0.281   0.291   0.286   0.298   0.277   0.280   0.272   0.285   0.306   0.308   0.297   0.289   0.283   0.296   0.293   0.287   0.293   0.302   0.304   0.310   0.322   0.305   0.302   0.304   0.306   0.317   0.311   0.295   0.294   0.291   0.303   0.294
    98.65    0.308   0.295   0.284   0.281   0.286   0.288   0.277   0.275   0.278   0.283   0.293   0.310   0.303   0.302   0.300   0.300   0.300   0.294   0.298   0.289   0.314   0.322   0.319   0.314   0.314   0.315   0.306   0.310   0.312   0.302   0.293   0.289   0.296   0.298   0.297
    94.00    0.310   0.304   0.286   0.294   0.282   0.281   0.275   0.269   0.269   0.281   0.300   0.292   0.303   0.313   0.302   0.305   0.298   0.292   0.301   0.313   0.313   0.321   0.306   0.299   0.300   0.298   0.304   0.302   0.299   0.290   0.294   0.287   0.298   0.299   0.294
    89.35    0.306   0.301   0.291   0.290   0.292   0.282   0.285   0.279   0.285   0.283   0.297   0.309   0.313   0.309   0.305   0.303   0.301   0.303   0.303   0.288   0.300   0.305   0.299   0.313   0.303   0.303   0.298   0.291   0.297   0.303   0.292   0.291   0.299   0.298   0.301
    84.70    0.307   0.283   0.293   0.301   0.298   0.292   0.289   0.284   0.285   0.296   0.304   0.304   0.305   0.316   0.296   0.297   0.306   0.291   0.294   0.299   0.301   0.301   0.294   0.308   0.310   0.306   0.292   0.285   0.290   0.286   0.289   0.299   0.301   0.299   0.297
    80.05    0.304   0.297   0.280   0.293   0.302   0.297   0.298   0.301   0.292   0.296   0.303   0.304   0.303   0.318   0.298   0.293   0.291   0.289   0.292   0.297   0.295   0.293   0.288   0.299   0.309   0.299   0.290   0.298   0.298   0.297   0.295   0.298   0.298   0.297   0.290
    75.40    0.291   0.302   0.291   0.305   0.299   0.295   0.304   0.298   0.295   0.314   0.295   0.304   0.301   0.300   0.297   0.285   0.288   0.289   0.293   0.294   0.285   0.287   0.286   0.286   0.296   0.305   0.300   0.295   0.292   0.299   0.292   0.297   0.293   0.283   0.285
    70.75    0.295   0.300   0.306   0.305   0.307   0.297   0.300   0.308   0.305   0.307   0.301   0.288   0.292   0.291   0.293   0.298   0.293   0.290   0.287   0.287   0.291   0.290   0.287   0.293   0.307   0.303   0.296   0.288   0.283   0.284   0.288   0.286   0.285   0.290   0.291
    66.10    0.307   0.308   0.300   0.293   0.302   0.294   0.301   0.311   0.305   0.307   0.298   0.298   0.293   0.284   0.290   0.290   0.293   0.279   0.278   0.291   0.298   0.293   0.297   0.306   0.303   0.287   0.295   0.291   0.299   0.284   0.285   0.285   0.286   0.296   0.298
    61.45    0.307   0.299   0.299   0.292   0.293   0.293   0.302   0.310   0.299   0.298   0.292   0.293   0.306   0.305   0.287   0.289   0.284   0.289   0.285   0.289   0.295   0.297   0.302   0.308   0.312   0.303   0.295   0.302   0.296   0.287   0.287   0.286   0.297   0.302   0.303
    56.80    0.324   0.315   0.306   0.300   0.292   0.291   0.306   0.310   0.293   0.288   0.301   0.311   0.311   0.315   0.298   0.285   0.288   0.293   0.295   0.287   0.304   0.297   0.301   0.302   0.309   0.303   0.296   0.294   0.298   0.304   0.299   0.296   0.288   0.307   0.314
    52.15    0.314   0.310   0.290   0.300   0.301   0.301   0.299   0.296   0.289   0.289   0.297   0.292   0.307   0.318   0.312   0.296   0.308   0.298   0.307   0.294   0.304   0.293   0.281   0.286   0.307   0.304   0.307   0.299   0.302   0.308   0.307   0.309   0.299   0.315   0.305
    47.50    0.311   0.302   0.298   0.295   0.298   0.299   0.299   0.295   0.299   0.306   0.291   0.285   0.306   0.313   0.313   0.306   0.301   0.298   0.291   0.302   0.301   0.295   0.296   0.292   0.314   0.309   0.299   0.300   0.313   0.310   0.310   0.307   0.306   0.310   0.308
    42.85    0.299   0.305   0.302   0.290   0.286   0.295   0.305   0.313   0.310   0.314   0.303   0.298   0.304   0.314   0.314   0.304   0.314   0.306   0.294   0.306   0.301   0.294   0.299   0.303   0.309   0.307   0.300   0.298   0.313   0.317   0.313   0.317   0.306   0.317   0.319
    38.20    0.297   0.295   0.295   0.291   0.296   0.297   0.292   0.291   0.306   0.309   0.303   0.311   0.313   0.303   0.300   0.296   0.306   0.300   0.303   0.303   0.303   0.303   0.292   0.302   0.301   0.309   0.290   0.298   0.310   0.307   0.319   0.320   0.311   0.305   0.300
    33.55    0.298   0.291   0.296   0.288   0.289   0.294   0.306   0.304   0.299   0.315   0.303   0.309   0.312   0.304   0.300   0.307   0.295   0.295   0.305   0.303   0.307   0.292   0.287   0.304   0.291   0.286   0.288   0.303   0.302   0.297   0.314   0.320   0.305   0.303   0.295
    28.90    0.304   0.296   0.291   0.290   0.298   0.291   0.294   0.293   0.305   0.314   0.314   0.313   0.313   0.304   0.293   0.298   0.302   0.307   0.305   0.298   0.323   0.316   0.315   0.310   0.301   0.290   0.296   0.302   0.287   0.299   0.307   0.316   0.304   0.301   0.294
    24.25    0.296   0.303   0.304   0.294   0.300   0.298   0.297   0.304   0.298   0.307   0.302   0.299   0.306   0.285   0.290   0.296   0.296   0.294   0.312   0.310   0.313   0.313   0.314   0.306   0.304   0.294   0.290   0.294   0.296   0.295   0.307   0.307   0.315   0.306   0.294
    19.60    0.296   0.296   0.290   0.289   0.300   0.290   0.297   0.298   0.287   0.298   0.300   0.300   0.292   0.288   0.298   0.298   0.303   0.296   0.296   0.299   0.317   0.312   0.303   0.283   0.295   0.299   0.300   0.286   0.286   0.291   0.297   0.302   0.307   0.305   0.298
    14.95    0.300   0.282   0.280   0.292   0.289   0.299   0.295   0.301   0.295   0.287   0.301   0.302   0.287   0.290   0.310   0.300   0.305   0.300   0.303   0.294   0.294   0.306   0.304   0.299   0.292   0.297   0.290   0.288   0.283   0.286   0.288   0.288   0.297   0.301   0.299
    10.30    0.309   0.300   0.287   0.284   0.288   0.300   0.292   0.292   0.295   0.302   0.301   0.291   0.287   0.282   0.301   0.298   0.294   0.301   0.309   0.301   0.296   0.302   0.285   0.299   0.309   0.301   0.296   0.285   0.287   0.282   0.293   0.289   0.293   0.294   0.297
     5.65    0.296   0.300   0.306   0.298   0.303   0.300   0.292   0.296   0.289   0.284   0.283   0.284   0.297   0.290   0.277   0.291   0.291   0.292   0.308   0.290   0.294   0.293   0.293   0.296   0.300   0.296   0.292   0.294   0.295   0.288   0.292   0.302   0.290   0.291   0.303
     1.00    0.291   0.300   0.296   0.297   0.307   0.298   0.299   0.295   0.302   0.290   0.283   0.284   0.286   0.288   0.285   0.292   0.288   0.288   0.298   0.296   0.298   0.300   0.300   0.300   0.292   0.293   0.306   0.301   0.297   0.297   0.296   0.307   0.302   0.299   0.310

   Mean standard deviation across all grid points:
      u component:    0.688 m/s
      v component:    0.453 m/s
      w component:    0.295 m/s


U-component (X) statistics from the interpolated hub point:

   Mean =   9.9913 m/s
   TI   =   7.1242 %


Processing complete.  6073.7 CPU seconds used.
