
This summary file was generated by TurbSim (from OpenFAST-v3.5.3) on 20-Apr-2025 at 08:55:57.


Runtime Options:

1333634118  Random seed #1
    RANLUX  Type of random number generator
         F  Output binary HH turbulence parameters?
         F  Output formatted turbulence parameters?
         F  Output AeroDyn HH files?
         T  Output AeroDyn FF files?
         F  Output BLADED FF files?
         F  Output tower data?
         F  Output HAWC FF files?
         F  Output formatted FF files?
         T  Output coherent turbulence time step file?
 0 -  NONE  IEC turbulence models scaled to exact specified standard deviation


Turbine/Model Specifications:

        37  Vertical grid-point matrix dimension
        35  Horizontal grid-point matrix dimension
     0.250  Time step [seconds]
   900.000  Analysis time [seconds]
   900.000  Usable output time [seconds]
    89.350  Hub height [m]
   167.400  Grid height [m]
   158.100  Grid width [m]
     0.000  Vertical flow angle [degrees]
     0.000  Horizontal flow angle [degrees]


Meteorological Boundary Conditions:

    TIMESR  User-input time series spectral model
       N/A  IEC standard
       N/A  IEC turbulence characteristic
       N/A  IEC turbulence type
       N/A  IEC Extreme Turbulence Model (ETM) "c" parameter [m/s]
       PL   Wind profile type
    90.000  Reference height [m]
    10.000  Reference wind speed [m/s]
       N/A  Jet height [m]
     0.120  Power law exponent
     0.030  Surface roughness length [m]


Non-IEC Meteorological Boundary Conditions:

    45.000  Site latitude [degrees]
     0.050  Gradient Richardson number
     0.480  Friction or shear velocity [m/s]
       N/A  Mixing layer depth [m]
       N/A  Mean hub u'w' Reynolds stress
       N/A  Mean hub u'v' Reynolds stress
       N/A  Mean hub v'w' Reynolds stress


Spatial Coherence Models:

       IEC  u-component coherence model
       IEC  v-component coherence model
       IEC  w-component coherence model
(   12.000, 0.353E-03)  u-component coherence parameters
(   12.000, 0.353E-03)  v-component coherence parameters
(   12.000, 0.353E-03)  w-component coherence parameters
       N/A  Coherence exponent


Coherent Turbulence Scaling Parameters:

.\EventData
            Name of the path containing the coherent turbulence data files
       dns  Type of coherent turbulence data files
     1.000  Disturbance scale (ratio of wave height to rotor diameter)
     0.500  Fractional location of tower centerline from right
     0.500  Fractional location of hub height from the bottom of the dataset
    30.000  Minimum start time for coherent structures [seconds]


Profiles from User-Defined Time-Series Input:

  Height   Wind Speed   Horizontal Angle   Vertical Angle
   (m)        (m/s)          (deg)              (deg)    
  ------   ----------   ----------------   --------------
   94.00      10.00          -0.63               -0.00


You have requested that the following file(s) be generated:

   /kfs3/scratch/agupta/Projects/RL_Incubator/FinalRuns_Veer/Seed4/./FFSim_Seed4/Cond00_v10.0_PL0.12_TI7.5/Case2_wdirp04/Seed_4/TurbSim/HighT17.bts (AeroDyn/TurbSim full-field wind file)


Turbulence Simulation Scaling Parameter Summary:

   Turbulence model used                            =  User-input time series
   Gradient Richardson number                       =    0.050
   Monin-Obukhov (M-O) z/L parameter                =    0.067
   Monin-Obukhov (M-O) length scale                 = 1340.250 m
   Mean wind speed at hub height                    =    9.991 m/s

   Wind profile type                                =  Power law
   Power law exponent                               =    0.120
   Mean shear across rotor disk                     =    0.019 (m/s)/m
   Assumed rotor diameter                           =  158.100 m
   Surface roughness length                         =    0.030 m

   Nyquist frequency of turbulent wind field        =    2.000 Hz

   Number of time steps in the FFT                  =     3600
   Number of time steps output                      =     3600
   Number of points simulated                       =     1296


Mean Flow Angles:

   Vertical   =   0.0 degrees
   Horizontal =   0.0 degrees

Mean Wind Speed Profile:

   Height    Wind Speed   Horizontal Angle  Vertical Angle  U-comp (X)   V-comp (Y)   W-comp (Z)
     (m)        (m/s)         (degrees)       (degrees)       (m/s)        (m/s)        (m/s)   
   ------    ----------   ----------------  --------------  ----------   ----------   ----------
    168.4       10.78            0.00            0.00         10.78         0.00         0.00
    163.7       10.74            0.00            0.00         10.74         0.00         0.00
    159.1       10.71            0.00            0.00         10.71         0.00         0.00
    154.4       10.67            0.00            0.00         10.67         0.00         0.00
    149.8       10.63            0.00            0.00         10.63         0.00         0.00
    145.1       10.59            0.00            0.00         10.59         0.00         0.00
    140.5       10.55            0.00            0.00         10.55         0.00         0.00
    135.8       10.51            0.00            0.00         10.51         0.00         0.00
    131.2       10.46            0.00            0.00         10.46         0.00         0.00
    126.5       10.42            0.00            0.00         10.42         0.00         0.00
    121.9       10.37            0.00            0.00         10.37         0.00         0.00
    117.2       10.32            0.00            0.00         10.32         0.00         0.00
    112.6       10.27            0.00            0.00         10.27         0.00         0.00
    107.9       10.22            0.00            0.00         10.22         0.00         0.00
    103.3       10.17            0.00            0.00         10.17         0.00         0.00
     98.6       10.11            0.00            0.00         10.11         0.00         0.00
     94.0       10.05            0.00            0.00         10.05         0.00         0.00
     89.3        9.99            0.00            0.00          9.99         0.00         0.00
     84.7        9.93            0.00            0.00          9.93         0.00         0.00
     80.0        9.86            0.00            0.00          9.86         0.00         0.00
     75.4        9.79            0.00            0.00          9.79         0.00         0.00
     70.7        9.72            0.00            0.00          9.72         0.00         0.00
     66.1        9.64            0.00            0.00          9.64         0.00         0.00
     61.4        9.55            0.00            0.00          9.55         0.00         0.00
     56.8        9.46            0.00            0.00          9.46         0.00         0.00
     52.1        9.37            0.00            0.00          9.37         0.00         0.00
     47.5        9.26            0.00            0.00          9.26         0.00         0.00
     42.8        9.15            0.00            0.00          9.15         0.00         0.00
     38.2        9.02            0.00            0.00          9.02         0.00         0.00
     33.5        8.88            0.00            0.00          8.88         0.00         0.00
     28.9        8.73            0.00            0.00          8.73         0.00         0.00
     24.2        8.54            0.00            0.00          8.54         0.00         0.00
     19.6        8.33            0.00            0.00          8.33         0.00         0.00
     14.9        8.06            0.00            0.00          8.06         0.00         0.00
     10.3        7.71            0.00            0.00          7.71         0.00         0.00
      5.6        7.17            0.00            0.00          7.17         0.00         0.00
      1.0        5.83            0.00            0.00          5.83         0.00         0.00


Harvested Random Seeds after Generation of the Random Numbers:

     65026800 K 1
            0 K 2


Hub-Height Simulated Turbulence Statistical Summary:

   Type of Wind        Min (m/s)   Mean (m/s)    Max (m/s)  Sigma (m/s)       TI (%)
   ----------------    ---------   ----------    ---------  -----------       ------
   Longitudinal (u)         8.03         9.99        12.33        0.676        6.761
   Lateral (v)             -1.45         0.00         1.79        0.521        5.211
   Vertical (w)            -1.21        -0.00         1.16        0.329        3.294
   U component              8.03         9.99        12.33        0.676        6.761
   V component             -1.45         0.00         1.79        0.521        5.211
   W component             -1.21        -0.00         1.16        0.329        3.294
   Horizontal (U&V)         8.06        10.00        12.33        0.676        6.758
   Total                    8.09        10.01        12.33        0.675        6.746

                       Min Reynolds     Mean Reynolds    Max Reynolds    Correlation
   Product             Stress (m/s)^2   Stress (m/s)^2   Stress (m/s)^2  Coefficient
   ----------------    --------------   --------------   --------------  -----------
   u'w'                     -1.367             0.017             1.805         0.075
   u'v'                     -1.860             0.019             1.373         0.054
   v'w'                     -1.000            -0.004             0.876        -0.023


   Friction Velocity (Ustar)  =      0.130 m/s
   Maximum Instantaneous TKE  =      2.761 (m/s)^2
   Maximum Instantaneous CTKE =      0.987 (m/s)^2


Grid Point Variance Summary:

   Y-coord  -79.05  -74.40  -69.75  -65.10  -60.45  -55.80  -51.15  -46.50  -41.85  -37.20  -32.55  -27.90  -23.25  -18.60  -13.95   -9.30   -4.65    0.00    4.65    9.30   13.95   18.60   23.25   27.90   32.55   37.20   41.85   46.50   51.15   55.80   60.45   65.10   69.75   74.40   79.05

   Height   Standard deviation at grid points for the u component:
   168.40    0.640   0.679   0.665   0.668   0.635   0.651   0.587   0.626   0.632   0.632   0.685   0.711   0.768   0.795   0.795   0.769   0.740   0.717   0.684   0.628   0.651   0.672   0.668   0.720   0.705   0.691   0.692   0.658   0.654   0.660   0.653   0.672   0.676   0.682   0.634
   163.75    0.669   0.654   0.654   0.631   0.654   0.642   0.660   0.643   0.655   0.653   0.702   0.698   0.790   0.770   0.804   0.796   0.748   0.692   0.657   0.603   0.659   0.696   0.685   0.655   0.678   0.700   0.682   0.655   0.709   0.689   0.682   0.690   0.658   0.685   0.689
   159.10    0.698   0.688   0.664   0.647   0.664   0.666   0.706   0.673   0.667   0.719   0.728   0.737   0.773   0.764   0.777   0.803   0.730   0.692   0.674   0.673   0.690   0.711   0.689   0.633   0.650   0.657   0.687   0.654   0.712   0.729   0.681   0.710   0.701   0.685   0.659
   154.45    0.725   0.697   0.654   0.662   0.640   0.638   0.696   0.698   0.675   0.724   0.722   0.737   0.756   0.756   0.764   0.748   0.756   0.735   0.705   0.660   0.654   0.646   0.634   0.633   0.668   0.658   0.673   0.678   0.711   0.721   0.710   0.704   0.703   0.692   0.663
   149.80    0.773   0.725   0.637   0.675   0.655   0.691   0.722   0.741   0.712   0.719   0.724   0.723   0.743   0.760   0.754   0.775   0.742   0.758   0.726   0.705   0.665   0.629   0.615   0.625   0.634   0.619   0.632   0.635   0.651   0.673   0.719   0.729   0.715   0.734   0.695
   145.15    0.800   0.740   0.666   0.666   0.655   0.696   0.704   0.735   0.706   0.732   0.698   0.702   0.747   0.809   0.803   0.768   0.776   0.816   0.764   0.709   0.698   0.681   0.627   0.619   0.618   0.602   0.617   0.622   0.662   0.645   0.671   0.672   0.709   0.709   0.701
   140.50    0.725   0.689   0.681   0.680   0.672   0.680   0.655   0.725   0.712   0.717   0.675   0.673   0.710   0.789   0.799   0.762   0.799   0.829   0.789   0.765   0.731   0.696   0.609   0.629   0.592   0.628   0.602   0.629   0.637   0.616   0.624   0.642   0.701   0.665   0.684
   135.85    0.712   0.637   0.656   0.703   0.659   0.685   0.713   0.718   0.735   0.736   0.696   0.650   0.669   0.745   0.749   0.746   0.778   0.779   0.813   0.778   0.713   0.688   0.655   0.632   0.606   0.644   0.639   0.639   0.599   0.572   0.628   0.660   0.698   0.657   0.643
   131.20    0.692   0.683   0.676   0.709   0.718   0.715   0.709   0.723   0.725   0.726   0.702   0.706   0.689   0.701   0.728   0.749   0.761   0.761   0.780   0.708   0.690   0.630   0.650   0.657   0.656   0.664   0.635   0.620   0.588   0.620   0.626   0.662   0.703   0.675   0.669
   126.55    0.719   0.664   0.735   0.712   0.687   0.669   0.711   0.713   0.707   0.707   0.684   0.672   0.640   0.726   0.776   0.794   0.793   0.726   0.745   0.757   0.713   0.670   0.664   0.659   0.675   0.646   0.636   0.614   0.611   0.601   0.578   0.603   0.670   0.657   0.620
   121.90    0.670   0.667   0.703   0.748   0.718   0.740   0.717   0.747   0.733   0.718   0.684   0.674   0.679   0.716   0.758   0.737   0.742   0.730   0.729   0.703   0.693   0.686   0.683   0.713   0.649   0.615   0.593   0.614   0.560   0.543   0.554   0.601   0.644   0.604   0.604
   117.25    0.646   0.696   0.708   0.754   0.766   0.733   0.750   0.718   0.718   0.715   0.716   0.714   0.716   0.701   0.745   0.740   0.701   0.712   0.718   0.724   0.677   0.651   0.679   0.672   0.636   0.664   0.639   0.588   0.570   0.538   0.535   0.589   0.619   0.647   0.591
   112.60    0.639   0.669   0.717   0.747   0.755   0.790   0.729   0.691   0.751   0.768   0.792   0.771   0.749   0.760   0.729   0.745   0.738   0.740   0.731   0.667   0.706   0.711   0.675   0.672   0.667   0.644   0.631   0.572   0.568   0.561   0.593   0.640   0.651   0.670   0.644
   107.95    0.638   0.660   0.691   0.758   0.797   0.804   0.736   0.705   0.717   0.763   0.737   0.784   0.783   0.765   0.746   0.738   0.718   0.674   0.711   0.701   0.689   0.740   0.707   0.689   0.708   0.659   0.630   0.576   0.623   0.625   0.644   0.663   0.699   0.675   0.644
   103.30    0.653   0.691   0.683   0.720   0.777   0.768   0.726   0.686   0.739   0.744   0.717   0.735   0.780   0.724   0.736   0.678   0.757   0.711   0.677   0.733   0.682   0.714   0.674   0.676   0.687   0.633   0.628   0.631   0.646   0.668   0.709   0.687   0.668   0.659   0.646
    98.65    0.673   0.703   0.691   0.691   0.776   0.769   0.765   0.731   0.740   0.739   0.690   0.787   0.756   0.729   0.743   0.736   0.741   0.756   0.718   0.726   0.705   0.706   0.658   0.676   0.686   0.703   0.654   0.701   0.687   0.673   0.678   0.676   0.675   0.638   0.678
    94.00    0.716   0.707   0.716   0.728   0.757   0.774   0.795   0.726   0.736   0.737   0.739   0.808   0.793   0.776   0.761   0.753   0.732   0.696   0.689   0.667   0.680   0.682   0.692   0.663   0.668   0.678   0.673   0.681   0.612   0.609   0.640   0.653   0.670   0.661   0.673
    89.35    0.705   0.765   0.770   0.725   0.746   0.765   0.787   0.753   0.739   0.731   0.762   0.789   0.781   0.716   0.745   0.707   0.706   0.676   0.661   0.641   0.673   0.706   0.692   0.717   0.683   0.697   0.662   0.627   0.627   0.582   0.614   0.664   0.621   0.647   0.691
    84.70    0.724   0.751   0.754   0.757   0.795   0.768   0.788   0.762   0.777   0.805   0.797   0.755   0.720   0.754   0.772   0.758   0.701   0.717   0.680   0.658   0.646   0.704   0.677   0.722   0.708   0.672   0.696   0.669   0.634   0.594   0.619   0.641   0.632   0.657   0.697
    80.05    0.751   0.736   0.759   0.766   0.804   0.767   0.802   0.812   0.864   0.787   0.767   0.748   0.746   0.744   0.706   0.746   0.696   0.720   0.713   0.649   0.651   0.698   0.724   0.726   0.701   0.704   0.696   0.645   0.613   0.630   0.608   0.660   0.672   0.666   0.743
    75.40    0.731   0.754   0.767   0.765   0.813   0.796   0.840   0.789   0.798   0.805   0.797   0.731   0.714   0.726   0.729   0.730   0.758   0.751   0.680   0.675   0.687   0.693   0.736   0.708   0.705   0.694   0.676   0.658   0.628   0.610   0.638   0.679   0.710   0.712   0.758
    70.75    0.704   0.724   0.790   0.823   0.837   0.841   0.780   0.798   0.804   0.787   0.790   0.742   0.710   0.751   0.728   0.702   0.737   0.763   0.707   0.723   0.681   0.708   0.720   0.725   0.709   0.700   0.705   0.711   0.658   0.643   0.637   0.694   0.711   0.733   0.785
    66.10    0.729   0.770   0.787   0.813   0.841   0.807   0.782   0.784   0.792   0.746   0.779   0.724   0.724   0.710   0.716   0.692   0.707   0.716   0.709   0.714   0.712   0.704   0.701   0.702   0.693   0.722   0.699   0.709   0.710   0.687   0.665   0.667   0.650   0.647   0.688
    61.45    0.824   0.797   0.796   0.860   0.807   0.806   0.781   0.778   0.768   0.773   0.789   0.748   0.744   0.709   0.691   0.742   0.748   0.749   0.740   0.734   0.719   0.718   0.700   0.702   0.692   0.727   0.727   0.700   0.726   0.724   0.698   0.685   0.656   0.623   0.681
    56.80    0.839   0.780   0.808   0.800   0.834   0.826   0.746   0.784   0.769   0.773   0.773   0.758   0.734   0.751   0.712   0.740   0.767   0.753   0.750   0.759   0.753   0.768   0.724   0.708   0.686   0.711   0.732   0.727   0.709   0.719   0.696   0.722   0.668   0.696   0.685
    52.15    0.842   0.797   0.791   0.800   0.799   0.783   0.751   0.748   0.768   0.738   0.796   0.792   0.746   0.749   0.695   0.714   0.718   0.726   0.724   0.756   0.720   0.774   0.705   0.691   0.657   0.711   0.719   0.674   0.666   0.689   0.749   0.752   0.701   0.710   0.724
    47.50    0.806   0.834   0.814   0.806   0.809   0.782   0.764   0.782   0.722   0.734   0.760   0.751   0.736   0.722   0.701   0.712   0.740   0.701   0.696   0.744   0.751   0.765   0.723   0.677   0.684   0.706   0.696   0.680   0.686   0.712   0.743   0.761   0.757   0.705   0.705
    42.85    0.778   0.797   0.792   0.795   0.785   0.798   0.763   0.735   0.719   0.733   0.759   0.736   0.730   0.743   0.743   0.704   0.680   0.691   0.691   0.720   0.792   0.792   0.741   0.720   0.684   0.686   0.689   0.678   0.738   0.728   0.714   0.717   0.738   0.759   0.771
    38.20    0.750   0.791   0.803   0.780   0.790   0.785   0.799   0.791   0.776   0.756   0.764   0.757   0.758   0.694   0.703   0.675   0.713   0.676   0.664   0.685   0.722   0.752   0.707   0.703   0.669   0.705   0.720   0.723   0.734   0.719   0.725   0.696   0.765   0.812   0.808
    33.55    0.741   0.772   0.807   0.837   0.794   0.746   0.811   0.819   0.740   0.757   0.793   0.788   0.776   0.730   0.697   0.676   0.714   0.686   0.691   0.694   0.706   0.727   0.722   0.696   0.686   0.734   0.705   0.732   0.776   0.782   0.765   0.763   0.800   0.834   0.785
    28.90    0.705   0.740   0.741   0.791   0.768   0.756   0.804   0.804   0.791   0.737   0.775   0.732   0.767   0.722   0.677   0.653   0.651   0.647   0.642   0.675   0.710   0.726   0.708   0.694   0.736   0.714   0.730   0.768   0.774   0.804   0.808   0.788   0.797   0.795   0.837
    24.25    0.703   0.727   0.781   0.771   0.797   0.798   0.831   0.776   0.768   0.755   0.769   0.724   0.735   0.739   0.731   0.688   0.644   0.637   0.627   0.654   0.712   0.704   0.748   0.734   0.776   0.732   0.744   0.756   0.778   0.817   0.823   0.816   0.857   0.852   0.822
    19.60    0.686   0.777   0.736   0.771   0.757   0.797   0.837   0.832   0.807   0.800   0.767   0.757   0.707   0.773   0.732   0.694   0.694   0.679   0.671   0.637   0.707   0.742   0.785   0.779   0.762   0.750   0.771   0.772   0.809   0.826   0.836   0.833   0.856   0.801   0.863
    14.95    0.761   0.766   0.739   0.748   0.791   0.798   0.842   0.824   0.819   0.766   0.760   0.751   0.753   0.776   0.808   0.748   0.727   0.728   0.665   0.668   0.712   0.789   0.775   0.784   0.792   0.785   0.765   0.835   0.832   0.830   0.805   0.818   0.836   0.829   0.816
    10.30    0.706   0.727   0.792   0.764   0.834   0.822   0.804   0.864   0.843   0.805   0.795   0.741   0.767   0.783   0.777   0.776   0.736   0.712   0.704   0.708   0.723   0.739   0.762   0.718   0.736   0.718   0.803   0.778   0.839   0.842   0.803   0.769   0.792   0.767   0.782
     5.65    0.726   0.711   0.769   0.814   0.819   0.841   0.787   0.796   0.813   0.789   0.805   0.779   0.760   0.742   0.776   0.762   0.724   0.734   0.715   0.689   0.747   0.718   0.743   0.702   0.688   0.690   0.760   0.765   0.812   0.842   0.756   0.759   0.745   0.783   0.771
     1.00    0.717   0.737   0.753   0.759   0.788   0.829   0.775   0.739   0.747   0.789   0.818   0.778   0.789   0.783   0.792   0.774   0.756   0.711   0.712   0.677   0.699   0.715   0.743   0.701   0.695   0.701   0.728   0.712   0.774   0.771   0.761   0.727   0.750   0.766   0.766

   Height   Standard deviation at grid points for the v component:
   168.40    0.540   0.547   0.539   0.540   0.538   0.542   0.508   0.512   0.528   0.525   0.539   0.505   0.495   0.496   0.496   0.528   0.516   0.509   0.496   0.487   0.459   0.457   0.456   0.453   0.461   0.476   0.476   0.488   0.465   0.484   0.479   0.495   0.457   0.479   0.478
   163.75    0.572   0.533   0.546   0.548   0.503   0.539   0.546   0.549   0.526   0.547   0.531   0.501   0.507   0.494   0.514   0.495   0.494   0.504   0.492   0.473   0.481   0.468   0.484   0.455   0.480   0.483   0.480   0.478   0.489   0.465   0.511   0.499   0.512   0.496   0.495
   159.10    0.560   0.562   0.575   0.554   0.537   0.549   0.551   0.560   0.540   0.518   0.516   0.522   0.518   0.500   0.507   0.494   0.482   0.512   0.509   0.487   0.483   0.489   0.471   0.482   0.465   0.478   0.464   0.461   0.459   0.464   0.492   0.496   0.489   0.487   0.498
   154.45    0.546   0.525   0.551   0.550   0.540   0.558   0.562   0.539   0.558   0.518   0.510   0.494   0.531   0.510   0.481   0.504   0.505   0.522   0.531   0.522   0.506   0.508   0.484   0.488   0.486   0.477   0.480   0.447   0.450   0.471   0.470   0.484   0.490   0.480   0.505
   149.80    0.562   0.552   0.580   0.539   0.570   0.576   0.571   0.577   0.572   0.544   0.523   0.519   0.530   0.509   0.517   0.487   0.507   0.544   0.519   0.502   0.504   0.515   0.493   0.506   0.492   0.483   0.477   0.501   0.474   0.488   0.449   0.475   0.473   0.503   0.533
   145.15    0.605   0.573   0.583   0.526   0.531   0.523   0.534   0.540   0.551   0.561   0.555   0.541   0.524   0.516   0.516   0.485   0.495   0.482   0.531   0.520   0.546   0.559   0.539   0.533   0.487   0.480   0.461   0.491   0.461   0.489   0.493   0.507   0.497   0.498   0.504
   140.50    0.572   0.542   0.538   0.541   0.536   0.526   0.500   0.499   0.503   0.541   0.540   0.520   0.545   0.530   0.505   0.508   0.494   0.492   0.550   0.541   0.577   0.574   0.567   0.502   0.471   0.477   0.493   0.493   0.505   0.484   0.478   0.519   0.498   0.508   0.506
   135.85    0.562   0.559   0.543   0.542   0.503   0.513   0.495   0.554   0.529   0.522   0.520   0.515   0.527   0.533   0.514   0.507   0.527   0.537   0.545   0.540   0.527   0.540   0.514   0.520   0.500   0.483   0.478   0.502   0.505   0.510   0.502   0.515   0.518   0.495   0.533
   131.20    0.522   0.520   0.516   0.525   0.511   0.506   0.515   0.514   0.526   0.535   0.525   0.513   0.537   0.539   0.532   0.517   0.532   0.537   0.545   0.572   0.512   0.529   0.553   0.518   0.500   0.494   0.473   0.523   0.472   0.529   0.526   0.497   0.505   0.517   0.539
   126.55    0.502   0.506   0.509   0.527   0.521   0.505   0.515   0.502   0.531   0.520   0.518   0.507   0.537   0.536   0.561   0.570   0.527   0.524   0.524   0.525   0.525   0.523   0.525   0.543   0.508   0.512   0.498   0.509   0.499   0.511   0.515   0.496   0.514   0.522   0.523
   121.90    0.487   0.496   0.491   0.527   0.520   0.491   0.507   0.504   0.534   0.539   0.523   0.516   0.530   0.566   0.554   0.572   0.536   0.532   0.554   0.547   0.530   0.527   0.512   0.519   0.483   0.513   0.501   0.491   0.477   0.495   0.494   0.498   0.503   0.525   0.530
   117.25    0.502   0.541   0.544   0.549   0.531   0.533   0.520   0.520   0.537   0.529   0.513   0.506   0.510   0.566   0.563   0.545   0.559   0.565   0.556   0.576   0.544   0.536   0.514   0.538   0.519   0.543   0.504   0.502   0.479   0.483   0.473   0.470   0.483   0.514   0.515
   112.60    0.555   0.538   0.574   0.557   0.559   0.582   0.567   0.557   0.545   0.545   0.534   0.530   0.536   0.530   0.563   0.557   0.557   0.560   0.554   0.585   0.556   0.564   0.579   0.551   0.590   0.574   0.526   0.509   0.493   0.481   0.489   0.484   0.481   0.495   0.489
   107.95    0.572   0.555   0.579   0.604   0.582   0.598   0.608   0.589   0.571   0.533   0.529   0.508   0.524   0.550   0.557   0.571   0.571   0.558   0.574   0.587   0.572   0.588   0.612   0.576   0.583   0.607   0.551   0.530   0.506   0.464   0.477   0.482   0.463   0.488   0.494
   103.30    0.582   0.591   0.614   0.602   0.625   0.647   0.639   0.560   0.563   0.558   0.536   0.514   0.509   0.535   0.546   0.563   0.547   0.528   0.513   0.547   0.564   0.580   0.601   0.605   0.627   0.566   0.560   0.531   0.503   0.497   0.497   0.490   0.442   0.461   0.473
    98.65    0.589   0.597   0.574   0.617   0.627   0.629   0.591   0.569   0.546   0.555   0.527   0.503   0.501   0.530   0.538   0.521   0.533   0.545   0.536   0.532   0.593   0.592   0.569   0.623   0.630   0.571   0.520   0.535   0.507   0.512   0.486   0.495   0.462   0.466   0.459
    94.00    0.561   0.581   0.604   0.587   0.625   0.588   0.572   0.553   0.568   0.525   0.502   0.510   0.524   0.520   0.522   0.531   0.497   0.527   0.562   0.595   0.589   0.587   0.622   0.597   0.584   0.580   0.573   0.556   0.526   0.547   0.544   0.510   0.482   0.470   0.458
    89.35    0.611   0.623   0.614   0.642   0.605   0.573   0.577   0.588   0.582   0.511   0.510   0.521   0.489   0.497   0.505   0.508   0.492   0.521   0.549   0.570   0.609   0.608   0.598   0.627   0.581   0.609   0.616   0.602   0.556   0.562   0.540   0.493   0.480   0.487   0.471
    84.70    0.636   0.596   0.625   0.633   0.587   0.559   0.543   0.569   0.576   0.564   0.553   0.521   0.524   0.506   0.512   0.501   0.492   0.514   0.572   0.615   0.612   0.617   0.591   0.602   0.582   0.580   0.601   0.592   0.536   0.518   0.513   0.494   0.489   0.483   0.469
    80.05    0.604   0.615   0.588   0.631   0.592   0.565   0.587   0.572   0.566   0.573   0.563   0.557   0.522   0.511   0.493   0.492   0.500   0.532   0.586   0.580   0.598   0.614   0.584   0.604   0.570   0.550   0.567   0.573   0.553   0.528   0.507   0.519   0.504   0.506   0.476
    75.40    0.585   0.596   0.611   0.598   0.595   0.578   0.570   0.575   0.583   0.581   0.544   0.545   0.551   0.549   0.481   0.478   0.522   0.545   0.568   0.592   0.620   0.598   0.580   0.572   0.550   0.543   0.556   0.548   0.519   0.547   0.560   0.546   0.508   0.488   0.452
    70.75    0.602   0.603   0.586   0.583   0.585   0.601   0.586   0.587   0.582   0.580   0.580   0.573   0.572   0.587   0.526   0.500   0.514   0.536   0.570   0.620   0.620   0.608   0.559   0.571   0.558   0.570   0.561   0.590   0.603   0.602   0.568   0.553   0.537   0.520   0.496
    66.10    0.601   0.621   0.602   0.591   0.607   0.623   0.593   0.595   0.613   0.632   0.634   0.627   0.626   0.596   0.559   0.541   0.532   0.568   0.606   0.646   0.636   0.610   0.584   0.564   0.556   0.580   0.563   0.559   0.594   0.608   0.623   0.608   0.534   0.547   0.508
    61.45    0.615   0.633   0.598   0.598   0.579   0.608   0.613   0.588   0.599   0.635   0.675   0.681   0.653   0.634   0.541   0.551   0.547   0.567   0.586   0.636   0.631   0.616   0.569   0.582   0.600   0.573   0.544   0.585   0.596   0.624   0.627   0.591   0.546   0.519   0.508
    56.80    0.622   0.631   0.602   0.593   0.577   0.584   0.595   0.597   0.644   0.623   0.645   0.652   0.634   0.580   0.580   0.587   0.584   0.572   0.591   0.605   0.596   0.595   0.600   0.586   0.602   0.595   0.584   0.564   0.610   0.622   0.585   0.590   0.563   0.513   0.509
    52.15    0.599   0.589   0.610   0.590   0.578   0.547   0.558   0.595   0.619   0.598   0.621   0.634   0.601   0.598   0.576   0.611   0.615   0.606   0.600   0.582   0.599   0.590   0.605   0.599   0.587   0.586   0.567   0.566   0.574   0.567   0.583   0.558   0.542   0.506   0.486
    47.50    0.588   0.602   0.590   0.551   0.568   0.571   0.572   0.583   0.588   0.607   0.605   0.574   0.598   0.575   0.552   0.604   0.630   0.581   0.596   0.594   0.595   0.588   0.594   0.605   0.615   0.566   0.585   0.540   0.561   0.567   0.560   0.538   0.541   0.530   0.495
    42.85    0.605   0.605   0.588   0.559   0.567   0.575   0.576   0.550   0.557   0.568   0.570   0.568   0.584   0.545   0.574   0.579   0.615   0.616   0.566   0.580   0.602   0.619   0.607   0.579   0.565   0.580   0.568   0.539   0.554   0.566   0.552   0.548   0.544   0.543   0.512
    38.20    0.602   0.606   0.595   0.593   0.599   0.609   0.573   0.551   0.543   0.560   0.546   0.560   0.583   0.568   0.554   0.572   0.582   0.593   0.577   0.566   0.581   0.635   0.626   0.588   0.560   0.572   0.573   0.575   0.559   0.556   0.562   0.582   0.589   0.531   0.502
    33.55    0.592   0.564   0.591   0.575   0.575   0.602   0.575   0.558   0.536   0.542   0.562   0.592   0.581   0.567   0.560   0.563   0.561   0.557   0.543   0.549   0.572   0.622   0.629   0.584   0.571   0.594   0.583   0.614   0.573   0.560   0.574   0.567   0.546   0.532   0.522
    28.90    0.561   0.563   0.584   0.570   0.587   0.587   0.570   0.548   0.533   0.531   0.556   0.600   0.628   0.597   0.583   0.566   0.548   0.541   0.558   0.534   0.565   0.591   0.609   0.587   0.571   0.581   0.591   0.592   0.575   0.564   0.580   0.581   0.543   0.530   0.537
    24.25    0.543   0.568   0.573   0.580   0.551   0.547   0.539   0.520   0.548   0.547   0.558   0.610   0.591   0.574   0.562   0.537   0.531   0.541   0.544   0.532   0.555   0.552   0.598   0.584   0.580   0.620   0.586   0.590   0.589   0.568   0.569   0.611   0.566   0.558   0.535
    19.60    0.590   0.572   0.551   0.565   0.522   0.541   0.544   0.542   0.573   0.547   0.546   0.573   0.586   0.585   0.588   0.563   0.532   0.534   0.545   0.545   0.533   0.542   0.604   0.614   0.591   0.602   0.565   0.585   0.586   0.555   0.561   0.572   0.557   0.563   0.558
    14.95    0.598   0.580   0.594   0.592   0.540   0.541   0.547   0.533   0.546   0.552   0.564   0.568   0.573   0.579   0.595   0.579   0.549   0.550   0.561   0.581   0.574   0.556   0.585   0.601   0.631   0.599   0.571   0.584   0.619   0.585   0.580   0.575   0.551   0.560   0.567
    10.30    0.582   0.580   0.575   0.575   0.522   0.525   0.537   0.525   0.531   0.549   0.557   0.551   0.540   0.541   0.543   0.577   0.572   0.552   0.526   0.530   0.555   0.561   0.569   0.594   0.584   0.574   0.577   0.591   0.611   0.635   0.629   0.580   0.545   0.535   0.542
     5.65    0.538   0.558   0.578   0.540   0.522   0.543   0.535   0.538   0.533   0.553   0.538   0.564   0.536   0.536   0.549   0.565   0.546   0.530   0.550   0.571   0.564   0.563   0.560   0.583   0.549   0.565   0.594   0.593   0.609   0.598   0.600   0.588   0.544   0.540   0.526
     1.00    0.557   0.552   0.554   0.520   0.511   0.491   0.538   0.496   0.508   0.520   0.490   0.496   0.532   0.525   0.540   0.540   0.548   0.571   0.549   0.555   0.552   0.555   0.541   0.557   0.568   0.589   0.577   0.564   0.597   0.596   0.575   0.562   0.543   0.541   0.520

   Height   Standard deviation at grid points for the w component:
   168.40    0.340   0.331   0.334   0.341   0.347   0.348   0.352   0.359   0.369   0.356   0.365   0.358   0.344   0.336   0.347   0.348   0.340   0.324   0.329   0.324   0.330   0.341   0.329   0.326   0.341   0.345   0.328   0.316   0.318   0.336   0.340   0.339   0.337   0.350   0.343
   163.75    0.332   0.346   0.331   0.335   0.340   0.346   0.357   0.356   0.334   0.352   0.346   0.353   0.344   0.335   0.333   0.329   0.336   0.341   0.338   0.333   0.336   0.332   0.344   0.333   0.338   0.331   0.327   0.319   0.332   0.333   0.344   0.337   0.350   0.360   0.336
   159.10    0.338   0.356   0.334   0.352   0.361   0.341   0.351   0.331   0.341   0.358   0.363   0.350   0.354   0.336   0.329   0.337   0.336   0.336   0.344   0.332   0.326   0.317   0.330   0.322   0.333   0.327   0.330   0.328   0.348   0.337   0.330   0.331   0.345   0.358   0.338
   154.45    0.344   0.336   0.338   0.342   0.363   0.349   0.331   0.344   0.345   0.339   0.346   0.343   0.342   0.351   0.334   0.339   0.339   0.346   0.336   0.329   0.320   0.317   0.323   0.324   0.328   0.326   0.338   0.345   0.342   0.350   0.334   0.328   0.335   0.336   0.344
   149.80    0.338   0.325   0.339   0.340   0.349   0.334   0.339   0.336   0.332   0.343   0.353   0.350   0.335   0.331   0.331   0.316   0.331   0.334   0.336   0.327   0.319   0.315   0.320   0.319   0.330   0.321   0.335   0.342   0.334   0.338   0.338   0.330   0.330   0.335   0.342
   145.15    0.331   0.321   0.335   0.330   0.324   0.342   0.339   0.348   0.341   0.339   0.349   0.343   0.339   0.331   0.320   0.319   0.331   0.328   0.324   0.325   0.322   0.322   0.327   0.332   0.323   0.332   0.341   0.337   0.338   0.333   0.330   0.334   0.334   0.330   0.322
   140.50    0.344   0.334   0.346   0.339   0.341   0.344   0.342   0.339   0.337   0.340   0.342   0.335   0.355   0.334   0.314   0.333   0.336   0.325   0.316   0.327   0.327   0.331   0.322   0.339   0.314   0.334   0.347   0.347   0.340   0.328   0.328   0.328   0.322   0.324   0.316
   135.85    0.338   0.343   0.366   0.356   0.358   0.354   0.352   0.331   0.338   0.345   0.335   0.328   0.333   0.329   0.327   0.322   0.326   0.319   0.324   0.332   0.321   0.328   0.336   0.332   0.332   0.331   0.329   0.337   0.333   0.324   0.327   0.333   0.323   0.325   0.320
   131.20    0.336   0.345   0.373   0.371   0.370   0.375   0.359   0.342   0.347   0.346   0.336   0.329   0.329   0.313   0.321   0.324   0.315   0.315   0.330   0.333   0.336   0.323   0.337   0.332   0.331   0.341   0.334   0.325   0.334   0.327   0.327   0.342   0.327   0.330   0.325
   126.55    0.328   0.349   0.363   0.350   0.368   0.364   0.362   0.342   0.342   0.338   0.328   0.335   0.321   0.327   0.324   0.324   0.319   0.303   0.321   0.329   0.337   0.320   0.328   0.340   0.340   0.345   0.335   0.342   0.338   0.338   0.330   0.337   0.340   0.321   0.322
   121.90    0.340   0.351   0.351   0.349   0.372   0.365   0.348   0.338   0.346   0.337   0.332   0.344   0.336   0.330   0.324   0.321   0.319   0.316   0.315   0.322   0.331   0.319   0.342   0.344   0.342   0.346   0.347   0.347   0.346   0.351   0.337   0.331   0.338   0.337   0.338
   117.25    0.342   0.347   0.342   0.359   0.381   0.380   0.355   0.348   0.339   0.325   0.347   0.340   0.335   0.332   0.324   0.327   0.329   0.330   0.320   0.317   0.321   0.330   0.332   0.347   0.355   0.344   0.354   0.365   0.346   0.338   0.330   0.338   0.343   0.324   0.331
   112.60    0.344   0.355   0.346   0.340   0.354   0.371   0.381   0.361   0.347   0.339   0.339   0.343   0.341   0.332   0.329   0.329   0.320   0.332   0.325   0.321   0.322   0.327   0.334   0.336   0.343   0.335   0.334   0.343   0.344   0.333   0.337   0.326   0.332   0.320   0.345
   107.95    0.337   0.337   0.343   0.354   0.366   0.375   0.358   0.352   0.346   0.342   0.345   0.334   0.333   0.338   0.332   0.347   0.341   0.333   0.327   0.320   0.323   0.320   0.317   0.318   0.326   0.326   0.332   0.341   0.339   0.342   0.327   0.336   0.323   0.328   0.348
   103.30    0.324   0.339   0.356   0.355   0.359   0.351   0.341   0.339   0.344   0.355   0.338   0.335   0.327   0.336   0.321   0.328   0.348   0.332   0.343   0.340   0.328   0.333   0.326   0.322   0.328   0.337   0.330   0.327   0.340   0.328   0.315   0.324   0.342   0.341   0.350
    98.65    0.333   0.349   0.344   0.331   0.330   0.342   0.342   0.327   0.339   0.357   0.350   0.339   0.338   0.331   0.334   0.327   0.345   0.347   0.337   0.331   0.328   0.337   0.343   0.324   0.340   0.335   0.327   0.336   0.329   0.329   0.326   0.329   0.331   0.335   0.348
    94.00    0.335   0.334   0.331   0.335   0.334   0.325   0.327   0.330   0.330   0.351   0.357   0.341   0.334   0.338   0.332   0.347   0.347   0.348   0.325   0.321   0.329   0.336   0.330   0.324   0.332   0.342   0.329   0.334   0.338   0.335   0.327   0.332   0.324   0.324   0.336
    89.35    0.323   0.327   0.341   0.338   0.340   0.332   0.336   0.335   0.337   0.331   0.357   0.339   0.331   0.336   0.338   0.344   0.338   0.329   0.317   0.318   0.321   0.323   0.335   0.340   0.334   0.331   0.332   0.330   0.339   0.333   0.336   0.332   0.331   0.325   0.325
    84.70    0.339   0.331   0.334   0.327   0.331   0.318   0.328   0.321   0.340   0.354   0.351   0.349   0.339   0.330   0.350   0.337   0.342   0.321   0.309   0.328   0.324   0.327   0.335   0.336   0.334   0.334   0.320   0.330   0.340   0.331   0.327   0.318   0.326   0.322   0.329
    80.05    0.333   0.339   0.342   0.331   0.333   0.321   0.328   0.317   0.325   0.349   0.339   0.349   0.343   0.349   0.359   0.345   0.333   0.324   0.323   0.335   0.328   0.322   0.319   0.328   0.336   0.331   0.328   0.334   0.339   0.345   0.343   0.326   0.333   0.327   0.328
    75.40    0.338   0.347   0.349   0.323   0.320   0.322   0.318   0.327   0.338   0.341   0.341   0.354   0.349   0.352   0.337   0.343   0.338   0.333   0.349   0.335   0.331   0.315   0.323   0.323   0.337   0.331   0.335   0.323   0.328   0.334   0.325   0.326   0.311   0.321   0.323
    70.75    0.335   0.337   0.335   0.331   0.322   0.326   0.333   0.335   0.330   0.336   0.339   0.338   0.341   0.329   0.331   0.327   0.320   0.330   0.337   0.324   0.331   0.321   0.315   0.320   0.334   0.345   0.341   0.338   0.335   0.332   0.321   0.315   0.316   0.326   0.321
    66.10    0.328   0.323   0.329   0.326   0.337   0.329   0.338   0.329   0.329   0.334   0.347   0.332   0.339   0.327   0.333   0.326   0.333   0.336   0.319   0.331   0.334   0.320   0.319   0.317   0.338   0.342   0.337   0.340   0.330   0.334   0.325   0.324   0.329   0.344   0.338
    61.45    0.342   0.329   0.330   0.338   0.342   0.330   0.329   0.319   0.318   0.326   0.344   0.333   0.330   0.323   0.324   0.333   0.328   0.312   0.316   0.308   0.310   0.330   0.332   0.334   0.333   0.341   0.335   0.342   0.331   0.336   0.336   0.329   0.329   0.338   0.336
    56.80    0.327   0.321   0.320   0.329   0.335   0.324   0.331   0.336   0.324   0.334   0.326   0.338   0.330   0.348   0.338   0.335   0.333   0.326   0.330   0.314   0.318   0.332   0.328   0.339   0.343   0.354   0.340   0.339   0.336   0.354   0.339   0.326   0.323   0.323   0.321
    52.15    0.331   0.319   0.326   0.329   0.325   0.331   0.345   0.327   0.337   0.335   0.341   0.344   0.355   0.335   0.330   0.333   0.337   0.333   0.323   0.316   0.320   0.338   0.318   0.336   0.353   0.339   0.345   0.347   0.356   0.360   0.339   0.337   0.334   0.324   0.326
    47.50    0.328   0.328   0.316   0.328   0.322   0.329   0.331   0.337   0.338   0.340   0.336   0.342   0.349   0.343   0.339   0.334   0.327   0.321   0.317   0.308   0.314   0.322   0.333   0.341   0.337   0.330   0.334   0.361   0.363   0.357   0.349   0.338   0.328   0.327   0.327
    42.85    0.339   0.328   0.325   0.324   0.320   0.339   0.345   0.349   0.328   0.340   0.331   0.333   0.339   0.341   0.338   0.333   0.327   0.328   0.321   0.309   0.322   0.328   0.320   0.341   0.334   0.341   0.340   0.345   0.351   0.359   0.353   0.338   0.334   0.341   0.345
    38.20    0.342   0.338   0.337   0.314   0.328   0.336   0.344   0.342   0.345   0.327   0.340   0.335   0.338   0.345   0.345   0.337   0.332   0.320   0.338   0.322   0.325   0.323   0.326   0.334   0.327   0.329   0.348   0.331   0.341   0.345   0.351   0.336   0.345   0.338   0.332
    33.55    0.339   0.349   0.340   0.334   0.325   0.317   0.335   0.333   0.328   0.338   0.341   0.325   0.314   0.337   0.339   0.340   0.332   0.332   0.333   0.335   0.338   0.327   0.334   0.323   0.330   0.332   0.348   0.330   0.335   0.342   0.352   0.344   0.344   0.342   0.335
    28.90    0.345   0.345   0.346   0.327   0.329   0.341   0.345   0.336   0.321   0.339   0.344   0.332   0.327   0.332   0.331   0.343   0.334   0.361   0.359   0.345   0.340   0.322   0.335   0.324   0.327   0.347   0.355   0.328   0.348   0.335   0.339   0.326   0.337   0.341   0.324
    24.25    0.331   0.337   0.345   0.336   0.323   0.332   0.333   0.338   0.344   0.342   0.349   0.352   0.339   0.316   0.328   0.325   0.344   0.336   0.354   0.364   0.353   0.341   0.342   0.320   0.347   0.344   0.352   0.346   0.353   0.323   0.339   0.332   0.333   0.324   0.331
    19.60    0.330   0.343   0.349   0.327   0.329   0.338   0.328   0.342   0.339   0.328   0.332   0.339   0.336   0.334   0.321   0.340   0.340   0.340   0.349   0.348   0.373   0.360   0.349   0.339   0.358   0.343   0.357   0.347   0.338   0.342   0.326   0.327   0.325   0.336   0.336
    14.95    0.337   0.345   0.334   0.336   0.331   0.361   0.352   0.347   0.342   0.321   0.337   0.327   0.344   0.344   0.321   0.345   0.351   0.360   0.347   0.359   0.374   0.357   0.345   0.348   0.365   0.346   0.355   0.339   0.331   0.336   0.324   0.320   0.324   0.344   0.337
    10.30    0.334   0.338   0.341   0.334   0.335   0.344   0.340   0.332   0.335   0.326   0.344   0.330   0.338   0.336   0.326   0.342   0.352   0.343   0.363   0.353   0.354   0.363   0.352   0.357   0.355   0.341   0.357   0.352   0.343   0.339   0.332   0.331   0.341   0.351   0.333
     5.65    0.348   0.337   0.333   0.329   0.318   0.337   0.329   0.328   0.328   0.327   0.338   0.346   0.351   0.351   0.345   0.326   0.339   0.337   0.348   0.369   0.351   0.337   0.344   0.341   0.340   0.337   0.344   0.349   0.366   0.333   0.329   0.333   0.333   0.335   0.338
     1.00    0.338   0.343   0.338   0.330   0.320   0.316   0.313   0.330   0.336   0.334   0.341   0.349   0.346   0.346   0.357   0.352   0.354   0.348   0.360   0.348   0.335   0.341   0.332   0.334   0.340   0.350   0.335   0.331   0.349   0.330   0.326   0.339   0.324   0.334   0.333

   Mean standard deviation across all grid points:
      u component:    0.719 m/s
      v component:    0.549 m/s
      w component:    0.336 m/s


U-component (X) statistics from the interpolated hub point:

   Mean =   9.9913 m/s
   TI   =   6.7612 %


Processing complete.  6437.4 CPU seconds used.
