
This summary file was generated by TurbSim (from OpenFAST-v3.5.3) on 20-Apr-2025 at 00:19:20.


Runtime Options:

1341164796  Random seed #1
    RANLUX  Type of random number generator
         F  Output binary HH turbulence parameters?
         F  Output formatted turbulence parameters?
         F  Output AeroDyn HH files?
         T  Output AeroDyn FF files?
         F  Output BLADED FF files?
         F  Output tower data?
         F  Output HAWC FF files?
         F  Output formatted FF files?
         T  Output coherent turbulence time step file?
 0 -  NONE  IEC turbulence models scaled to exact specified standard deviation


Turbine/Model Specifications:

        39  Vertical grid-point matrix dimension
       193  Horizontal grid-point matrix dimension
     0.250  Time step [seconds]
   900.000  Analysis time [seconds]
   900.000  Usable output time [seconds]
   177.700  Hub height [m]
   353.400  Grid height [m]
  1785.600  Grid width [m]
     0.000  Vertical flow angle [degrees]
     0.000  Horizontal flow angle [degrees]


Meteorological Boundary Conditions:

    IECKAI  IEC Kaimal spectral model
         1  IEC standard: IEC 61400-1 Ed. 3: 2005
     7.500  Percent turbulence intensity, IEC 61400-1 Ed. 3: 2005
       NTM  IEC Normal Turbulence Model
       N/A  IEC Extreme Turbulence Model (ETM) "c" parameter [m/s]
       USR  Wind profile type
    90.000  Reference height [m]
       N/A  Reference wind speed [m/s]
       N/A  Jet height [m]
       N/A  Power law exponent
     0.030  Surface roughness length [m]


Non-IEC Meteorological Boundary Conditions:

       N/A  Site latitude [degrees]
       N/A  Gradient Richardson number
       N/A  Friction or shear velocity [m/s]
       N/A  Mixing layer depth [m]
       N/A  Mean hub u'w' Reynolds stress
       N/A  Mean hub u'v' Reynolds stress
       N/A  Mean hub v'w' Reynolds stress


Spatial Coherence Models:

       IEC  u-component coherence model
       IEC  v-component coherence model
       IEC  w-component coherence model
(   12.000, 0.353E-03)  u-component coherence parameters
(   12.000, 0.353E-03)  v-component coherence parameters
(   12.000, 0.353E-03)  w-component coherence parameters
       N/A  Coherence exponent


User-Defined Profiles:

  Height   Wind Speed   Horizontal Angle
   (m)        (m/s)          (deg)      
  ------   ----------   ----------------
  353.40      10.00         318.19
  334.80      10.00         321.14
  316.20      10.00         324.10
  297.60      10.00         327.05
  279.00      10.00         330.00
  260.40      10.00         332.95
  241.80      10.00         335.90
  223.20      10.00         338.86
  204.60      10.00         341.81
  186.00      10.00         344.76
  167.40      10.00         347.71
  148.80      10.00         350.67
  130.20      10.00         353.62
  111.60      10.00         356.57
   93.00      10.00         359.52
   74.40      10.00           2.48
   55.80      10.00           5.43
   37.20      10.00           8.38
   18.60      10.00          11.33
    0.00      10.00          14.29


You have requested that the following file(s) be generated:

   /kfs3/scratch/agupta/Projects/RL_Incubator/FinalRuns_Veer/Seed4/./FFSim_Seed4/Cond00_v10.0_PL0.12_TI7.5/Seed_8/Low.bts (AeroDyn/TurbSim full-field wind file)


Turbulence Simulation Scaling Parameter Summary:

   Turbulence model used                            =  IEC Kaimal
   Turbulence characteristic                        =  User-specified
   IEC standard                                     =  IEC 61400-1 Ed. 3: 2005
   Mean wind speed at hub height                    =   10.000 m/s
   Characteristic value of standard deviation       =    0.750 m/s
   Turbulence scale                                 =   42.000 m
   u-component integral scale                       =  340.200 m
   Coherency scale                                  =  340.200 m
   Characteristic value of hub turbulence intensity =    7.500%
   Gradient Richardson number                       =    0.000

   Wind profile type                                =  Linear interpolation of user-defined profile
   Equivalent power law exponent (upper rotor disk) =    0.000
   Mean shear across rotor disk                     =    0.000 (m/s)/m
   Assumed rotor diameter                           =  353.400 m
   Surface roughness length                         =    0.030 m

   Nyquist frequency of turbulent wind field        =    2.000 Hz

   Number of time steps in the FFT                  =     3600
   Number of time steps output                      =     3600
   Number of points simulated                       =     7527


Mean Flow Angles:

   Vertical   =   0.0 degrees
   Horizontal =   0.0 degrees

Mean Wind Speed Profile:

   Height    Wind Speed   Horizontal Angle  Vertical Angle  U-comp (X)   V-comp (Y)   W-comp (Z)
     (m)        (m/s)         (degrees)       (degrees)       (m/s)        (m/s)        (m/s)   
   ------    ----------   ----------------  --------------  ----------   ----------   ----------
    354.4       10.00          318.19            0.00          7.45        -6.67         0.00
    345.1       10.00          319.51            0.00          7.60        -6.49         0.00
    335.8       10.00          320.98            0.00          7.77        -6.30         0.00
    326.5       10.00          322.46            0.00          7.93        -6.09         0.00
    317.2       10.00          323.94            0.00          8.08        -5.89         0.00
    307.9       10.00          325.41            0.00          8.23        -5.68         0.00
    298.6       10.00          326.89            0.00          8.38        -5.46         0.00
    289.3       10.00          328.37            0.00          8.51        -5.25         0.00
    280.0       10.00          329.84            0.00          8.65        -5.02         0.00
    270.7       10.00          331.32            0.00          8.77        -4.80         0.00
    261.4       10.00          332.79            0.00          8.89        -4.57         0.00
    252.1       10.00          334.27            0.00          9.01        -4.34         0.00
    242.8       10.00          335.75            0.00          9.12        -4.11         0.00
    233.5       10.00          337.22            0.00          9.22        -3.87         0.00
    224.2       10.00          338.70            0.00          9.32        -3.63         0.00
    214.9       10.00          340.17            0.00          9.41        -3.39         0.00
    205.6       10.00          341.65            0.00          9.49        -3.15         0.00
    196.3       10.00          343.13            0.00          9.57        -2.90         0.00
    187.0       10.00          344.60            0.00          9.64        -2.66         0.00
    177.7       10.00          346.08            0.00          9.71        -2.41         0.00
    168.4       10.00          347.56            0.00          9.77        -2.15         0.00
    159.1       10.00          349.03            0.00          9.82        -1.90         0.00
    149.8       10.00          350.51            0.00          9.86        -1.65         0.00
    140.5       10.00          351.98            0.00          9.90        -1.39         0.00
    131.2       10.00          353.46            0.00          9.93        -1.14         0.00
    121.9       10.00          354.94            0.00          9.96        -0.88         0.00
    112.6       10.00          356.41            0.00          9.98        -0.63         0.00
    103.3       10.00          357.89            0.00          9.99        -0.37         0.00
     94.0       10.00          359.37            0.00         10.00        -0.11         0.00
     84.7       10.00          360.84            0.00         10.00         0.15         0.00
     75.4       10.00          362.32            0.00          9.99         0.40         0.00
     66.1       10.00            3.79            0.00          9.98         0.66         0.00
     56.8       10.00            5.27            0.00          9.96         0.92         0.00
     47.5       10.00            6.75            0.00          9.93         1.17         0.00
     38.2       10.00            8.22            0.00          9.90         1.43         0.00
     28.9       10.00            9.70            0.00          9.86         1.68         0.00
     19.6       10.00           11.17            0.00          9.81         1.94         0.00
     10.3       10.00           12.65            0.00          9.76         2.19         0.00
      1.0       10.00           14.13            0.00          9.70         2.44         0.00


Harvested Random Seeds after Generation of the Random Numbers:

    377667225 K 1
            0 K 2


Hub-Height Simulated Turbulence Statistical Summary:

   Type of Wind        Min (m/s)   Mean (m/s)    Max (m/s)  Sigma (m/s)       TI (%)
   ----------------    ---------   ----------    ---------  -----------       ------
   Longitudinal (u)         8.09        10.00        12.50        0.679        6.792
   Lateral (v)             -2.02        -0.00         2.33        0.635        6.351
   Vertical (w)            -1.29        -0.00         1.29        0.357        3.572
   U component              7.69         9.71        12.29        0.643        6.625
   V component             -4.51        -2.41        -0.41        0.672        6.919
   W component             -1.29        -0.00         1.29        0.357        3.680
   Horizontal (U&V)         8.12        10.02        12.51        0.682        6.810
   Total                    8.12        10.03        12.51        0.682        6.800

                       Min Reynolds     Mean Reynolds    Max Reynolds    Correlation
   Product             Stress (m/s)^2   Stress (m/s)^2   Stress (m/s)^2  Coefficient
   ----------------    --------------   --------------   --------------  -----------
   u'w'                     -1.257             0.002             1.547         0.007
   u'v'                     -2.504            -0.095             2.802        -0.220
   v'w'                     -1.287            -0.001             1.601        -0.005


   Friction Velocity (Ustar)  =      0.042 m/s
   Maximum Instantaneous TKE  =      3.472 (m/s)^2
   Maximum Instantaneous CTKE =      1.445 (m/s)^2


Grid Point Variance Summary:

   Y-coord -892.80 -883.50 -874.20 -864.90 -855.60 -846.30 -837.00 -827.70 -818.40 -809.10 -799.80 -790.50 -781.20 -771.90 -762.60 -753.30 -744.00 -734.70 -725.40 -716.10 -706.80 -697.50 -688.20 -678.90 -669.60 -660.30 -651.00 -641.70 -632.40 -623.10 -613.80 -604.50 -595.20 -585.90 -576.60 -567.30 -558.00 -548.70 -539.40 -530.10 -520.80 -511.50 -502.20 -492.90 -483.60 -474.30 -465.00 -455.70 -446.40 -437.10 -427.80 -418.50 -409.20 -399.90 -390.60 -381.30 -372.00 -362.70 -353.40 -344.10 -334.80 -325.50 -316.20 -306.90 -297.60 -288.30 -279.00 -269.70 -260.40 -251.10 -241.80 -232.50 -223.20 -213.90 -204.60 -195.30 -186.00 -176.70 -167.40 -158.10 -148.80 -139.50 -130.20 -120.90 -111.60 -102.30  -93.00  -83.70  -74.40  -65.10  -55.80  -46.50  -37.20  -27.90  -18.60   -9.30    0.00    9.30   18.60   27.90   37.20   46.50   55.80   65.10   74.40   83.70   93.00  102.30  111.60  120.90  130.20  139.50  148.80  158.10  167.40  176.70  186.00  195.30  204.60  213.90  223.20  232.50  241.80  251.10  260.40  269.70  279.00  288.30  297.60  306.90  316.20  325.50  334.80  344.10  353.40  362.70  372.00  381.30  390.60  399.90  409.20  418.50  427.80  437.10  446.40  455.70  465.00  474.30  483.60  492.90  502.20  511.50  520.80  530.10  539.40  548.70  558.00  567.30  576.60  585.90  595.20  604.50  613.80  623.10  632.40  641.70  651.00  660.30  669.60  678.90  688.20  697.50  706.80  716.10  725.40  734.70  744.00  753.30  762.60  771.90  781.20  790.50  799.80  809.10  818.40  827.70  837.00  846.30  855.60  864.90  874.20  883.50  892.80

   Height   Standard deviation at grid points for the u component:
   354.40    0.607   0.602   0.612   0.573   0.588   0.622   0.636   0.641   0.610   0.609   0.599   0.623   0.641   0.676   0.701   0.637   0.581   0.662   0.672   0.658   0.740   0.769   0.807   0.791   0.766   0.753   0.746   0.735   0.693   0.686   0.699   0.769   0.806   0.816   0.842   0.815   0.770   0.731   0.699   0.675   0.709   0.727   0.756   0.740   0.676   0.692   0.705   0.704   0.700   0.680   0.737   0.758   0.734   0.742   0.731   0.662   0.644   0.613   0.623   0.635   0.645   0.636   0.640   0.609   0.634   0.638   0.640   0.643   0.666   0.673   0.646   0.608   0.619   0.678   0.653   0.629   0.592   0.568   0.608   0.609   0.594   0.595   0.570   0.560   0.562   0.599   0.605   0.620   0.642   0.588   0.619   0.637   0.668   0.726   0.758   0.792   0.805   0.797   0.809   0.820   0.872   0.795   0.786   0.750   0.729   0.692   0.688   0.724   0.682   0.627   0.610   0.632   0.593   0.552   0.599   0.558   0.579   0.657   0.660   0.678   0.663   0.676   0.666   0.636   0.630   0.685   0.727   0.686   0.710   0.636   0.674   0.669   0.688   0.629   0.674   0.657   0.638   0.659   0.643   0.705   0.716   0.710   0.698   0.617   0.603   0.682   0.679   0.705   0.666   0.688   0.668   0.670   0.691   0.631   0.648   0.693   0.679   0.673   0.700   0.697   0.754   0.720   0.670   0.663   0.674   0.703   0.673   0.645   0.629   0.642   0.660   0.720   0.708   0.748   0.763   0.775   0.759   0.796   0.784   0.786   0.728   0.706   0.746   0.739   0.797   0.822   0.790   0.800   0.811   0.791   0.787   0.764   0.725
   345.10    0.643   0.616   0.601   0.556   0.601   0.586   0.636   0.629   0.604   0.583   0.595   0.674   0.668   0.704   0.649   0.608   0.644   0.709   0.678   0.737   0.785   0.821   0.810   0.740   0.725   0.734   0.772   0.729   0.675   0.674   0.704   0.760   0.843   0.779   0.788   0.779   0.746   0.703   0.751   0.707   0.728   0.696   0.723   0.701   0.693   0.709   0.727   0.722   0.672   0.727   0.762   0.820   0.828   0.763   0.692   0.682   0.608   0.610   0.609   0.595   0.620   0.581   0.610   0.604   0.605   0.633   0.654   0.696   0.710   0.740   0.677   0.657   0.664   0.670   0.644   0.600   0.623   0.620   0.655   0.648   0.623   0.636   0.590   0.563   0.591   0.555   0.591   0.621   0.592   0.580   0.613   0.667   0.668   0.671   0.767   0.782   0.776   0.763   0.788   0.794   0.822   0.815   0.771   0.744   0.739   0.747   0.715   0.658   0.632   0.636   0.638   0.614   0.558   0.557   0.577   0.576   0.554   0.590   0.624   0.612   0.643   0.646   0.684   0.693   0.713   0.711   0.755   0.748   0.736   0.702   0.676   0.654   0.652   0.740   0.696   0.724   0.746   0.703   0.675   0.660   0.709   0.706   0.717   0.651   0.670   0.684   0.669   0.655   0.617   0.622   0.638   0.564   0.626   0.625   0.614   0.654   0.681   0.654   0.643   0.662   0.708   0.691   0.671   0.630   0.672   0.692   0.681   0.642   0.661   0.652   0.675   0.681   0.701   0.712   0.745   0.744   0.766   0.806   0.772   0.802   0.738   0.705   0.691   0.732   0.776   0.785   0.758   0.777   0.781   0.728   0.754   0.689   0.698
   335.80    0.636   0.615   0.569   0.597   0.567   0.612   0.587   0.615   0.586   0.587   0.628   0.653   0.635   0.656   0.686   0.676   0.688   0.687   0.695   0.712   0.738   0.810   0.786   0.735   0.771   0.716   0.727   0.664   0.651   0.660   0.670   0.708   0.798   0.766   0.758   0.744   0.739   0.702   0.763   0.700   0.690   0.671   0.717   0.741   0.683   0.705   0.713   0.704   0.706   0.724   0.737   0.820   0.805   0.749   0.686   0.618   0.643   0.617   0.652   0.631   0.601   0.592   0.623   0.666   0.659   0.660   0.680   0.703   0.696   0.717   0.746   0.637   0.655   0.672   0.677   0.655   0.644   0.641   0.695   0.664   0.630   0.598   0.579   0.609   0.604   0.580   0.579   0.578   0.571   0.609   0.650   0.629   0.699   0.714   0.751   0.748   0.759   0.759   0.816   0.800   0.812   0.801   0.730   0.727   0.747   0.708   0.689   0.666   0.575   0.573   0.590   0.586   0.583   0.579   0.579   0.603   0.592   0.590   0.586   0.654   0.653   0.611   0.657   0.655   0.713   0.694   0.692   0.706   0.698   0.689   0.691   0.683   0.677   0.775   0.791   0.761   0.712   0.695   0.701   0.691   0.697   0.701   0.718   0.711   0.697   0.652   0.634   0.606   0.632   0.601   0.582   0.551   0.570   0.595   0.613   0.641   0.667   0.638   0.605   0.622   0.654   0.659   0.681   0.638   0.689   0.702   0.696   0.681   0.641   0.630   0.685   0.677   0.698   0.698   0.673   0.733   0.755   0.784   0.731   0.729   0.717   0.691   0.628   0.658   0.720   0.748   0.755   0.738   0.740   0.706   0.729   0.679   0.628
   326.50    0.650   0.614   0.563   0.526   0.568   0.555   0.542   0.588   0.590   0.631   0.670   0.689   0.686   0.677   0.690   0.671   0.670   0.733   0.729   0.730   0.727   0.771   0.801   0.752   0.755   0.750   0.728   0.709   0.721   0.654   0.628   0.694   0.730   0.750   0.746   0.697   0.724   0.681   0.710   0.700   0.659   0.695   0.699   0.746   0.715   0.688   0.664   0.689   0.701   0.710   0.721   0.779   0.754   0.671   0.625   0.608   0.623   0.645   0.652   0.679   0.691   0.665   0.648   0.665   0.686   0.683   0.679   0.722   0.728   0.709   0.725   0.716   0.644   0.667   0.675   0.688   0.656   0.658   0.676   0.681   0.567   0.543   0.538   0.596   0.567   0.592   0.544   0.586   0.603   0.619   0.658   0.678   0.677   0.708   0.713   0.718   0.728   0.746   0.788   0.831   0.800   0.798   0.736   0.729   0.761   0.766   0.697   0.709   0.632   0.590   0.570   0.595   0.591   0.579   0.570   0.561   0.573   0.583   0.606   0.687   0.693   0.678   0.690   0.650   0.681   0.708   0.717   0.724   0.729   0.715   0.718   0.693   0.729   0.781   0.807   0.742   0.740   0.732   0.694   0.688   0.752   0.756   0.697   0.685   0.630   0.596   0.604   0.623   0.588   0.602   0.614   0.583   0.605   0.632   0.609   0.632   0.674   0.641   0.627   0.666   0.622   0.607   0.698   0.656   0.680   0.715   0.724   0.667   0.683   0.643   0.647   0.665   0.712   0.697   0.758   0.787   0.770   0.748   0.730   0.690   0.715   0.719   0.726   0.719   0.723   0.717   0.749   0.736   0.744   0.668   0.620   0.604   0.611
   317.20    0.638   0.658   0.615   0.571   0.553   0.618   0.616   0.629   0.659   0.755   0.715   0.747   0.703   0.717   0.708   0.705   0.671   0.724   0.707   0.753   0.723   0.765   0.777   0.746   0.737   0.706   0.701   0.693   0.702   0.707   0.683   0.666   0.715   0.701   0.683   0.710   0.654   0.699   0.696   0.697   0.656   0.647   0.706   0.747   0.725   0.700   0.661   0.682   0.649   0.654   0.738   0.767   0.723   0.618   0.619   0.615   0.635   0.650   0.684   0.745   0.707   0.658   0.657   0.629   0.678   0.664   0.665   0.674   0.722   0.722   0.746   0.699   0.707   0.666   0.649   0.652   0.677   0.721   0.670   0.651   0.602   0.571   0.571   0.572   0.538   0.542   0.563   0.623   0.600   0.608   0.631   0.686   0.671   0.728   0.689   0.686   0.694   0.757   0.806   0.737   0.745   0.807   0.746   0.755   0.799   0.741   0.734   0.689   0.723   0.668   0.619   0.594   0.606   0.598   0.566   0.569   0.623   0.611   0.607   0.650   0.650   0.687   0.682   0.667   0.684   0.735   0.765   0.750   0.777   0.744   0.793   0.792   0.774   0.779   0.794   0.799   0.770   0.740   0.699   0.714   0.738   0.720   0.686   0.619   0.630   0.613   0.649   0.635   0.582   0.651   0.658   0.689   0.639   0.599   0.604   0.615   0.651   0.667   0.699   0.689   0.688   0.736   0.748   0.720   0.678   0.692   0.665   0.670   0.671   0.653   0.663   0.699   0.753   0.734   0.744   0.755   0.706   0.776   0.706   0.679   0.714   0.711   0.699   0.745   0.749   0.728   0.710   0.740   0.708   0.673   0.614   0.587   0.621
   307.90    0.656   0.657   0.631   0.624   0.580   0.601   0.626   0.637   0.687   0.757   0.710   0.724   0.702   0.688   0.733   0.724   0.724   0.718   0.748   0.750   0.756   0.739   0.760   0.728   0.677   0.685   0.685   0.679   0.719   0.759   0.701   0.653   0.710   0.719   0.702   0.664   0.693   0.747   0.709   0.677   0.663   0.673   0.645   0.669   0.722   0.654   0.667   0.637   0.652   0.651   0.650   0.628   0.720   0.625   0.621   0.596   0.626   0.674   0.700   0.681   0.711   0.668   0.644   0.636   0.679   0.689   0.693   0.643   0.683   0.715   0.722   0.747   0.730   0.684   0.654   0.633   0.671   0.628   0.646   0.600   0.583   0.559   0.562   0.545   0.541   0.549   0.624   0.635   0.626   0.630   0.634   0.657   0.673   0.665   0.658   0.693   0.689   0.746   0.759   0.766   0.810   0.749   0.750   0.738   0.761   0.716   0.700   0.695   0.704   0.711   0.636   0.621   0.607   0.574   0.577   0.575   0.639   0.614   0.606   0.649   0.673   0.704   0.756   0.743   0.746   0.712   0.734   0.784   0.801   0.790   0.838   0.842   0.848   0.817   0.743   0.774   0.772   0.754   0.655   0.739   0.781   0.711   0.723   0.671   0.660   0.683   0.648   0.649   0.659   0.694   0.682   0.673   0.671   0.626   0.612   0.666   0.692   0.684   0.687   0.689   0.681   0.744   0.735   0.745   0.691   0.640   0.656   0.672   0.684   0.679   0.702   0.705   0.743   0.758   0.750   0.746   0.724   0.778   0.731   0.737   0.689   0.666   0.741   0.738   0.702   0.681   0.689   0.670   0.650   0.649   0.577   0.619   0.641
   298.60    0.639   0.647   0.639   0.621   0.590   0.600   0.621   0.627   0.680   0.689   0.744   0.747   0.704   0.699   0.694   0.678   0.670   0.682   0.708   0.714   0.740   0.696   0.684   0.705   0.635   0.703   0.698   0.701   0.701   0.735   0.680   0.670   0.666   0.716   0.696   0.640   0.715   0.688   0.714   0.698   0.675   0.676   0.668   0.656   0.642   0.646   0.632   0.657   0.618   0.679   0.669   0.712   0.698   0.623   0.644   0.613   0.635   0.650   0.648   0.678   0.685   0.639   0.651   0.656   0.715   0.734   0.687   0.705   0.677   0.677   0.711   0.730   0.716   0.718   0.660   0.647   0.600   0.609   0.624   0.587   0.595   0.534   0.564   0.532   0.518   0.584   0.641   0.640   0.648   0.651   0.668   0.649   0.633   0.624   0.647   0.715   0.720   0.750   0.744   0.788   0.761   0.786   0.751   0.720   0.743   0.770   0.788   0.729   0.693   0.651   0.622   0.660   0.651   0.659   0.624   0.603   0.657   0.629   0.641   0.667   0.688   0.687   0.747   0.738   0.714   0.665   0.748   0.758   0.778   0.775   0.810   0.844   0.810   0.810   0.766   0.737   0.731   0.731   0.710   0.780   0.809   0.760   0.752   0.733   0.695   0.678   0.661   0.702   0.688   0.666   0.728   0.754   0.685   0.620   0.643   0.679   0.674   0.708   0.703   0.722   0.727   0.731   0.746   0.691   0.696   0.628   0.591   0.634   0.640   0.700   0.688   0.704   0.701   0.688   0.722   0.749   0.745   0.726   0.753   0.736   0.710   0.661   0.735   0.721   0.742   0.684   0.651   0.622   0.599   0.600   0.598   0.644   0.652
   289.30    0.715   0.697   0.675   0.659   0.640   0.619   0.623   0.637   0.651   0.678   0.696   0.710   0.668   0.623   0.612   0.656   0.663   0.687   0.636   0.709   0.698   0.654   0.675   0.695   0.678   0.701   0.713   0.683   0.677   0.675   0.681   0.671   0.719   0.723   0.726   0.672   0.727   0.722   0.728   0.741   0.761   0.704   0.656   0.623   0.617   0.633   0.642   0.649   0.638   0.654   0.675   0.673   0.689   0.661   0.638   0.633   0.636   0.641   0.639   0.644   0.647   0.656   0.712   0.706   0.682   0.710   0.722   0.701   0.678   0.677   0.648   0.707   0.660   0.637   0.666   0.637   0.622   0.612   0.639   0.589   0.570   0.562   0.577   0.549   0.539   0.604   0.676   0.656   0.673   0.672   0.646   0.639   0.632   0.592   0.605   0.688   0.752   0.743   0.750   0.743   0.746   0.816   0.788   0.797   0.759   0.829   0.809   0.761   0.701   0.705   0.663   0.621   0.656   0.654   0.624   0.609   0.625   0.665   0.681   0.629   0.679   0.691   0.715   0.763   0.716   0.708   0.764   0.745   0.787   0.815   0.790   0.855   0.772   0.786   0.779   0.782   0.741   0.757   0.756   0.770   0.735   0.716   0.740   0.669   0.657   0.660   0.711   0.627   0.704   0.663   0.697   0.730   0.706   0.701   0.644   0.687   0.654   0.725   0.705   0.729   0.704   0.719   0.721   0.662   0.676   0.657   0.609   0.577   0.629   0.652   0.652   0.705   0.682   0.684   0.710   0.714   0.678   0.711   0.735   0.694   0.724   0.671   0.707   0.721   0.719   0.711   0.706   0.671   0.633   0.594   0.613   0.597   0.644
   280.00    0.702   0.704   0.663   0.689   0.649   0.672   0.686   0.658   0.624   0.670   0.688   0.711   0.684   0.678   0.686   0.647   0.671   0.717   0.701   0.715   0.668   0.635   0.632   0.622   0.688   0.666   0.673   0.709   0.705   0.678   0.640   0.718   0.724   0.730   0.707   0.716   0.712   0.749   0.751   0.747   0.711   0.664   0.633   0.588   0.604   0.625   0.652   0.631   0.647   0.654   0.705   0.693   0.634   0.617   0.617   0.613   0.602   0.583   0.626   0.633   0.647   0.637   0.675   0.733   0.729   0.727   0.747   0.721   0.652   0.642   0.634   0.692   0.670   0.650   0.611   0.625   0.625   0.601   0.611   0.589   0.592   0.570   0.522   0.561   0.577   0.588   0.634   0.663   0.622   0.643   0.626   0.654   0.662   0.642   0.681   0.689   0.720   0.719   0.758   0.753   0.754   0.796   0.776   0.714   0.737   0.814   0.848   0.790   0.713   0.682   0.675   0.686   0.664   0.687   0.682   0.711   0.681   0.746   0.711   0.710   0.688   0.665   0.708   0.673   0.708   0.779   0.828   0.833   0.778   0.796   0.836   0.857   0.812   0.760   0.794   0.802   0.748   0.735   0.748   0.755   0.653   0.685   0.698   0.651   0.642   0.672   0.675   0.648   0.653   0.660   0.705   0.780   0.796   0.746   0.708   0.681   0.671   0.693   0.750   0.758   0.716   0.708   0.723   0.655   0.642   0.652   0.623   0.624   0.602   0.658   0.669   0.667   0.654   0.646   0.642   0.630   0.670   0.676   0.671   0.682   0.684   0.685   0.710   0.677   0.702   0.691   0.726   0.714   0.693   0.685   0.603   0.661   0.633
   270.70    0.667   0.717   0.738   0.761   0.714   0.739   0.740   0.731   0.690   0.689   0.694   0.686   0.731   0.730   0.692   0.648   0.715   0.744   0.675   0.679   0.655   0.599   0.587   0.613   0.676   0.666   0.627   0.678   0.718   0.642   0.686   0.716   0.753   0.765   0.732   0.704   0.719   0.750   0.781   0.689   0.682   0.640   0.625   0.612   0.584   0.612   0.656   0.670   0.657   0.663   0.698   0.652   0.645   0.635   0.645   0.625   0.635   0.638   0.628   0.575   0.600   0.606   0.644   0.683   0.709   0.685   0.716   0.687   0.674   0.663   0.652   0.705   0.679   0.661   0.613   0.634   0.625   0.655   0.673   0.645   0.605   0.606   0.610   0.587   0.544   0.599   0.627   0.623   0.615   0.654   0.675   0.613   0.661   0.648   0.619   0.686   0.692   0.742   0.755   0.814   0.787   0.747   0.746   0.729   0.757   0.766   0.829   0.790   0.716   0.715   0.736   0.683   0.690   0.702   0.657   0.726   0.780   0.756   0.755   0.682   0.669   0.685   0.655   0.639   0.668   0.745   0.799   0.837   0.814   0.787   0.802   0.844   0.807   0.741   0.753   0.763   0.761   0.754   0.731   0.703   0.675   0.657   0.685   0.670   0.643   0.628   0.644   0.659   0.621   0.642   0.727   0.756   0.772   0.698   0.719   0.659   0.693   0.706   0.743   0.730   0.664   0.659   0.640   0.605   0.629   0.646   0.610   0.635   0.668   0.665   0.660   0.621   0.671   0.631   0.620   0.638   0.632   0.637   0.612   0.652   0.683   0.623   0.689   0.666   0.744   0.718   0.733   0.681   0.687   0.614   0.643   0.647   0.626
   261.40    0.651   0.704   0.755   0.692   0.708   0.732   0.714   0.706   0.706   0.689   0.713   0.716   0.763   0.715   0.725   0.703   0.727   0.739   0.676   0.674   0.620   0.630   0.630   0.624   0.661   0.641   0.630   0.673   0.666   0.679   0.651   0.683   0.707   0.684   0.704   0.678   0.689   0.702   0.738   0.634   0.625   0.647   0.619   0.662   0.598   0.613   0.651   0.667   0.692   0.627   0.618   0.631   0.641   0.638   0.644   0.608   0.611   0.613   0.605   0.608   0.626   0.631   0.620   0.644   0.697   0.700   0.653   0.674   0.665   0.697   0.690   0.677   0.693   0.685   0.638   0.611   0.617   0.663   0.680   0.650   0.650   0.628   0.641   0.621   0.628   0.652   0.637   0.607   0.655   0.676   0.643   0.661   0.629   0.599   0.610   0.635   0.685   0.736   0.733   0.725   0.755   0.677   0.706   0.719   0.732   0.739   0.747   0.720   0.728   0.691   0.724   0.674   0.704   0.764   0.712   0.692   0.769   0.791   0.778   0.727   0.725   0.649   0.682   0.643   0.684   0.719   0.701   0.806   0.789   0.785   0.814   0.814   0.781   0.734   0.716   0.723   0.738   0.744   0.723   0.709   0.661   0.671   0.689   0.668   0.646   0.624   0.660   0.631   0.679   0.641   0.672   0.705   0.712   0.677   0.642   0.706   0.690   0.707   0.678   0.697   0.635   0.600   0.587   0.605   0.636   0.648   0.674   0.666   0.707   0.659   0.643   0.604   0.625   0.588   0.605   0.630   0.605   0.650   0.596   0.612   0.649   0.668   0.677   0.647   0.698   0.696   0.682   0.648   0.695   0.622   0.638   0.578   0.587
   252.10    0.678   0.741   0.695   0.658   0.726   0.751   0.733   0.694   0.680   0.765   0.771   0.745   0.783   0.781   0.717   0.714   0.686   0.695   0.676   0.665   0.684   0.682   0.623   0.661   0.633   0.639   0.659   0.686   0.704   0.645   0.656   0.709   0.733   0.683   0.660   0.679   0.666   0.672   0.699   0.649   0.639   0.651   0.653   0.651   0.603   0.647   0.641   0.694   0.705   0.614   0.557   0.584   0.623   0.653   0.645   0.611   0.621   0.650   0.628   0.629   0.664   0.671   0.632   0.649   0.653   0.682   0.682   0.681   0.670   0.695   0.708   0.672   0.631   0.648   0.659   0.635   0.641   0.649   0.655   0.660   0.631   0.614   0.590   0.584   0.655   0.690   0.685   0.696   0.698   0.671   0.648   0.669   0.661   0.653   0.649   0.611   0.667   0.728   0.730   0.707   0.707   0.690   0.655   0.690   0.727   0.742   0.759   0.746   0.735   0.692   0.760   0.729   0.716   0.754   0.753   0.738   0.790   0.860   0.847   0.748   0.749   0.709   0.738   0.681   0.702   0.752   0.744   0.781   0.762   0.787   0.772   0.796   0.822   0.725   0.716   0.696   0.711   0.705   0.727   0.675   0.707   0.636   0.687   0.719   0.658   0.622   0.638   0.632   0.605   0.616   0.655   0.649   0.668   0.667   0.686   0.675   0.707   0.661   0.684   0.644   0.582   0.582   0.591   0.623   0.638   0.641   0.691   0.707   0.658   0.666   0.602   0.654   0.632   0.551   0.626   0.641   0.644   0.702   0.646   0.661   0.654   0.635   0.662   0.666   0.677   0.665   0.661   0.646   0.666   0.665   0.658   0.608   0.590
   242.80    0.724   0.742   0.738   0.728   0.721   0.752   0.705   0.716   0.709   0.749   0.759   0.750   0.741   0.736   0.706   0.687   0.690   0.652   0.657   0.637   0.655   0.645   0.661   0.699   0.648   0.610   0.657   0.663   0.694   0.666   0.699   0.687   0.717   0.642   0.691   0.675   0.658   0.724   0.677   0.684   0.636   0.640   0.644   0.634   0.610   0.600   0.621   0.696   0.675   0.644   0.589   0.578   0.614   0.661   0.661   0.619   0.616   0.637   0.652   0.639   0.692   0.707   0.653   0.693   0.697   0.715   0.743   0.709   0.729   0.684   0.750   0.664   0.672   0.649   0.689   0.679   0.679   0.637   0.667   0.652   0.632   0.572   0.623   0.655   0.659   0.704   0.698   0.731   0.725   0.680   0.664   0.685   0.646   0.666   0.639   0.690   0.679   0.692   0.692   0.701   0.743   0.708   0.715   0.662   0.705   0.732   0.717   0.719   0.763   0.771   0.751   0.745   0.758   0.759   0.721   0.725   0.776   0.847   0.811   0.797   0.767   0.754   0.768   0.796   0.766   0.756   0.709   0.761   0.724   0.785   0.766   0.741   0.765   0.707   0.707   0.697   0.707   0.720   0.698   0.695   0.688   0.674   0.676   0.691   0.689   0.668   0.638   0.628   0.656   0.633   0.660   0.605   0.638   0.637   0.649   0.638   0.646   0.664   0.651   0.641   0.617   0.605   0.615   0.648   0.601   0.623   0.673   0.676   0.625   0.657   0.661   0.693   0.671   0.627   0.661   0.692   0.725   0.697   0.719   0.676   0.663   0.678   0.678   0.654   0.632   0.658   0.631   0.629   0.670   0.654   0.690   0.613   0.616
   233.50    0.716   0.718   0.696   0.712   0.678   0.715   0.714   0.691   0.712   0.766   0.725   0.706   0.736   0.761   0.722   0.755   0.656   0.605   0.615   0.611   0.617   0.668   0.686   0.699   0.695   0.649   0.636   0.679   0.708   0.723   0.692   0.704   0.697   0.694   0.657   0.637   0.648   0.696   0.679   0.690   0.647   0.634   0.602   0.622   0.603   0.617   0.664   0.633   0.692   0.608   0.606   0.608   0.619   0.620   0.617   0.620   0.625   0.637   0.695   0.706   0.689   0.668   0.672   0.712   0.747   0.752   0.756   0.711   0.696   0.696   0.691   0.691   0.705   0.680   0.699   0.630   0.665   0.651   0.702   0.688   0.646   0.674   0.677   0.695   0.703   0.690   0.708   0.733   0.716   0.659   0.700   0.691   0.692   0.672   0.669   0.689   0.671   0.624   0.650   0.672   0.652   0.655   0.667   0.646   0.684   0.717   0.703   0.707   0.715   0.752   0.765   0.720   0.747   0.731   0.747   0.721   0.772   0.820   0.784   0.806   0.762   0.785   0.774   0.804   0.787   0.747   0.696   0.754   0.718   0.774   0.794   0.763   0.737   0.709   0.713   0.703   0.697   0.701   0.673   0.688   0.680   0.646   0.643   0.678   0.654   0.670   0.638   0.642   0.634   0.619   0.589   0.611   0.631   0.638   0.671   0.599   0.612   0.594   0.643   0.657   0.606   0.604   0.621   0.613   0.623   0.638   0.677   0.700   0.611   0.619   0.647   0.678   0.657   0.661   0.655   0.660   0.671   0.673   0.715   0.655   0.649   0.616   0.681   0.695   0.639   0.615   0.606   0.616   0.654   0.634   0.624   0.618   0.639
   224.20    0.741   0.711   0.730   0.664   0.706   0.676   0.677   0.736   0.793   0.757   0.796   0.736   0.741   0.752   0.749   0.729   0.657   0.635   0.597   0.646   0.647   0.644   0.666   0.659   0.696   0.655   0.624   0.624   0.655   0.686   0.730   0.735   0.745   0.720   0.676   0.640   0.655   0.695   0.689   0.593   0.670   0.653   0.670   0.620   0.617   0.635   0.668   0.718   0.723   0.663   0.624   0.644   0.631   0.619   0.645   0.650   0.647   0.645   0.656   0.718   0.700   0.702   0.760   0.805   0.726   0.745   0.739   0.719   0.693   0.699   0.718   0.680   0.747   0.700   0.701   0.681   0.677   0.661   0.668   0.677   0.641   0.668   0.708   0.749   0.765   0.734   0.704   0.682   0.658   0.691   0.733   0.730   0.729   0.696   0.656   0.671   0.645   0.619   0.639   0.637   0.645   0.655   0.656   0.683   0.719   0.747   0.733   0.667   0.707   0.737   0.750   0.742   0.703   0.743   0.767   0.771   0.812   0.846   0.793   0.788   0.775   0.785   0.773   0.748   0.725   0.718   0.664   0.707   0.728   0.736   0.756   0.817   0.805   0.760   0.759   0.729   0.699   0.733   0.732   0.653   0.662   0.673   0.620   0.646   0.626   0.638   0.651   0.639   0.627   0.623   0.640   0.669   0.653   0.643   0.672   0.610   0.625   0.618   0.651   0.652   0.577   0.578   0.627   0.632   0.628   0.624   0.674   0.649   0.647   0.643   0.666   0.694   0.674   0.679   0.700   0.678   0.705   0.734   0.719   0.652   0.633   0.656   0.668   0.648   0.644   0.600   0.543   0.587   0.628   0.593   0.635   0.631   0.620
   214.90    0.721   0.688   0.698   0.724   0.668   0.631   0.692   0.704   0.764   0.757   0.786   0.751   0.757   0.748   0.767   0.716   0.727   0.688   0.648   0.664   0.640   0.636   0.652   0.671   0.677   0.713   0.663   0.642   0.689   0.700   0.711   0.746   0.725   0.696   0.692   0.686   0.651   0.696   0.693   0.634   0.685   0.633   0.662   0.668   0.598   0.659   0.722   0.791   0.687   0.706   0.708   0.722   0.665   0.624   0.617   0.639   0.695   0.696   0.737   0.703   0.730   0.757   0.813   0.779   0.712   0.690   0.717   0.681   0.725   0.724   0.741   0.706   0.743   0.712   0.716   0.713   0.718   0.729   0.637   0.636   0.631   0.696   0.689   0.726   0.690   0.658   0.635   0.654   0.600   0.653   0.681   0.719   0.718   0.730   0.713   0.630   0.636   0.656   0.632   0.668   0.649   0.601   0.639   0.651   0.657   0.694   0.716   0.705   0.699   0.704   0.723   0.765   0.707   0.722   0.724   0.722   0.776   0.771   0.833   0.820   0.777   0.788   0.754   0.785   0.743   0.684   0.693   0.721   0.710   0.691   0.811   0.808   0.800   0.810   0.783   0.741   0.693   0.717   0.723   0.678   0.696   0.652   0.635   0.656   0.656   0.663   0.642   0.598   0.631   0.678   0.628   0.689   0.645   0.642   0.659   0.669   0.653   0.617   0.636   0.639   0.582   0.637   0.568   0.647   0.691   0.664   0.666   0.630   0.684   0.685   0.692   0.669   0.677   0.685   0.748   0.735   0.718   0.778   0.745   0.650   0.622   0.646   0.611   0.655   0.663   0.598   0.565   0.580   0.601   0.581   0.608   0.627   0.618
   205.60    0.749   0.687   0.748   0.721   0.699   0.681   0.700   0.707   0.740   0.773   0.751   0.715   0.763   0.772   0.732   0.734   0.693   0.724   0.678   0.652   0.640   0.667   0.661   0.648   0.663   0.695   0.654   0.651   0.674   0.686   0.678   0.702   0.675   0.695   0.732   0.721   0.703   0.704   0.704   0.693   0.672   0.696   0.728   0.704   0.699   0.674   0.727   0.772   0.705   0.729   0.738   0.686   0.644   0.627   0.640   0.665   0.695   0.767   0.768   0.674   0.679   0.728   0.773   0.754   0.748   0.655   0.658   0.695   0.694   0.698   0.696   0.717   0.719   0.717   0.753   0.752   0.783   0.715   0.706   0.701   0.654   0.706   0.670   0.660   0.672   0.627   0.650   0.621   0.599   0.639   0.647   0.667   0.708   0.697   0.660   0.719   0.634   0.682   0.671   0.651   0.652   0.618   0.635   0.681   0.689   0.699   0.716   0.724   0.750   0.687   0.711   0.734   0.701   0.653   0.705   0.751   0.770   0.783   0.824   0.765   0.724   0.729   0.723   0.733   0.705   0.693   0.704   0.724   0.752   0.761   0.799   0.772   0.746   0.782   0.777   0.717   0.696   0.702   0.689   0.729   0.677   0.667   0.638   0.701   0.675   0.685   0.673   0.677   0.657   0.698   0.678   0.672   0.617   0.641   0.662   0.705   0.648   0.643   0.595   0.611   0.600   0.584   0.607   0.663   0.710   0.686   0.660   0.659   0.613   0.681   0.649   0.666   0.665   0.669   0.747   0.793   0.777   0.789   0.723   0.705   0.651   0.655   0.675   0.703   0.698   0.619   0.616   0.607   0.606   0.591   0.602   0.612   0.631
   196.30    0.711   0.697   0.696   0.664   0.709   0.720   0.727   0.723   0.751   0.741   0.706   0.722   0.693   0.741   0.708   0.701   0.697   0.694   0.736   0.650   0.680   0.672   0.690   0.637   0.666   0.656   0.679   0.655   0.740   0.677   0.653   0.686   0.700   0.638   0.705   0.701   0.649   0.670   0.660   0.734   0.656   0.687   0.713   0.757   0.750   0.731   0.779   0.760   0.743   0.723   0.729   0.739   0.681   0.659   0.680   0.724   0.708   0.725   0.763   0.714   0.670   0.717   0.695   0.708   0.711   0.632   0.624   0.627   0.654   0.675   0.642   0.701   0.703   0.710   0.726   0.773   0.792   0.739   0.756   0.674   0.659   0.679   0.654   0.663   0.674   0.646   0.630   0.590   0.640   0.622   0.634   0.642   0.691   0.699   0.711   0.709   0.664   0.711   0.719   0.721   0.705   0.709   0.687   0.739   0.752   0.723   0.733   0.737   0.759   0.688   0.745   0.711   0.709   0.697   0.732   0.753   0.767   0.764   0.745   0.734   0.703   0.696   0.749   0.714   0.723   0.696   0.729   0.694   0.793   0.775   0.728   0.790   0.791   0.817   0.784   0.748   0.716   0.722   0.686   0.710   0.755   0.742   0.709   0.738   0.770   0.725   0.725   0.735   0.722   0.707   0.739   0.721   0.681   0.657   0.675   0.684   0.682   0.651   0.584   0.588   0.566   0.569   0.566   0.629   0.687   0.701   0.657   0.650   0.613   0.623   0.642   0.663   0.682   0.706   0.754   0.794   0.793   0.774   0.707   0.719   0.701   0.713   0.725   0.704   0.696   0.673   0.590   0.630   0.641   0.684   0.694   0.701   0.627
   187.00    0.671   0.648   0.679   0.669   0.696   0.690   0.704   0.694   0.709   0.723   0.709   0.667   0.693   0.686   0.671   0.685   0.703   0.676   0.662   0.648   0.651   0.700   0.678   0.659   0.680   0.681   0.718   0.686   0.722   0.697   0.668   0.659   0.660   0.643   0.632   0.663   0.641   0.643   0.674   0.672   0.655   0.678   0.711   0.774   0.782   0.775   0.772   0.802   0.769   0.723   0.753   0.751   0.717   0.677   0.728   0.733   0.718   0.712   0.730   0.688   0.689   0.723   0.701   0.701   0.673   0.664   0.658   0.641   0.649   0.636   0.696   0.715   0.678   0.713   0.763   0.734   0.785   0.774   0.718   0.701   0.684   0.687   0.657   0.619   0.694   0.660   0.620   0.660   0.652   0.636   0.613   0.643   0.663   0.683   0.735   0.718   0.690   0.717   0.720   0.696   0.729   0.694   0.685   0.687   0.725   0.729   0.731   0.747   0.740   0.703   0.653   0.701   0.667   0.665   0.708   0.707   0.707   0.715   0.730   0.678   0.730   0.777   0.767   0.697   0.729   0.706   0.755   0.759   0.792   0.772   0.802   0.808   0.845   0.782   0.749   0.738   0.702   0.720   0.674   0.700   0.732   0.730   0.707   0.748   0.743   0.769   0.768   0.768   0.747   0.759   0.747   0.739   0.701   0.729   0.704   0.708   0.638   0.649   0.630   0.559   0.582   0.615   0.609   0.625   0.642   0.678   0.660   0.649   0.609   0.615   0.595   0.652   0.624   0.730   0.785   0.752   0.740   0.768   0.726   0.737   0.752   0.703   0.718   0.742   0.756   0.753   0.697   0.691   0.673   0.713   0.684   0.703   0.628
   177.70    0.653   0.658   0.711   0.741   0.727   0.706   0.760   0.745   0.759   0.721   0.687   0.701   0.647   0.698   0.675   0.683   0.685   0.705   0.668   0.666   0.680   0.675   0.681   0.656   0.631   0.671   0.670   0.658   0.674   0.688   0.679   0.676   0.658   0.680   0.622   0.618   0.610   0.634   0.651   0.628   0.660   0.674   0.723   0.773   0.785   0.788   0.772   0.790   0.751   0.725   0.706   0.712   0.714   0.717   0.741   0.748   0.740   0.718   0.744   0.707   0.706   0.676   0.638   0.690   0.740   0.663   0.654   0.616   0.615   0.628   0.675   0.693   0.761   0.729   0.744   0.728   0.803   0.774   0.694   0.682   0.683   0.652   0.687   0.663   0.673   0.665   0.628   0.597   0.648   0.626   0.566   0.622   0.641   0.678   0.725   0.688   0.679   0.735   0.690   0.687   0.718   0.710   0.724   0.684   0.712   0.773   0.735   0.726   0.694   0.686   0.706   0.727   0.673   0.660   0.705   0.729   0.747   0.703   0.709   0.752   0.698   0.744   0.751   0.730   0.729   0.774   0.748   0.789   0.783   0.791   0.843   0.866   0.875   0.800   0.765   0.703   0.703   0.732   0.690   0.675   0.676   0.734   0.755   0.711   0.763   0.814   0.755   0.744   0.771   0.781   0.718   0.745   0.767   0.764   0.736   0.755   0.680   0.661   0.649   0.599   0.605   0.642   0.612   0.613   0.618   0.650   0.648   0.630   0.617   0.593   0.646   0.658   0.665   0.727   0.740   0.747   0.759   0.711   0.747   0.776   0.721   0.743   0.687   0.742   0.789   0.790   0.739   0.702   0.674   0.722   0.713   0.692   0.580
   168.40    0.702   0.716   0.720   0.736   0.737   0.714   0.736   0.722   0.698   0.682   0.696   0.677   0.674   0.727   0.688   0.681   0.664   0.673   0.664   0.659   0.652   0.659   0.633   0.624   0.632   0.656   0.686   0.711   0.684   0.695   0.721   0.700   0.682   0.663   0.640   0.609   0.633   0.680   0.714   0.659   0.671   0.737   0.744   0.840   0.797   0.783   0.717   0.735   0.740   0.702   0.733   0.714   0.764   0.734   0.821   0.758   0.704   0.732   0.779   0.746   0.672   0.744   0.684   0.719   0.703   0.683   0.664   0.649   0.610   0.610   0.669   0.702   0.747   0.732   0.719   0.757   0.759   0.766   0.653   0.679   0.679   0.706   0.689   0.672   0.670   0.675   0.603   0.631   0.653   0.591   0.610   0.639   0.671   0.705   0.689   0.640   0.677   0.713   0.745   0.725   0.757   0.749   0.732   0.742   0.717   0.726   0.736   0.710   0.718   0.694   0.709   0.717   0.745   0.687   0.724   0.752   0.735   0.680   0.712   0.702   0.723   0.712   0.713   0.724   0.720   0.762   0.764   0.751   0.716   0.751   0.780   0.800   0.824   0.804   0.752   0.695   0.686   0.721   0.684   0.700   0.710   0.723   0.693   0.768   0.802   0.751   0.750   0.761   0.753   0.768   0.730   0.701   0.716   0.715   0.693   0.690   0.718   0.663   0.696   0.651   0.645   0.656   0.642   0.629   0.607   0.574   0.625   0.631   0.666   0.612   0.638   0.632   0.697   0.727   0.725   0.729   0.738   0.730   0.752   0.745   0.795   0.747   0.743   0.784   0.771   0.767   0.749   0.743   0.705   0.728   0.652   0.635   0.599
   159.10    0.737   0.697   0.713   0.687   0.718   0.736   0.735   0.725   0.696   0.701   0.721   0.726   0.713   0.791   0.753   0.690   0.668   0.659   0.677   0.675   0.634   0.618   0.692   0.629   0.646   0.657   0.632   0.684   0.700   0.636   0.685   0.703   0.650   0.668   0.671   0.660   0.667   0.723   0.750   0.736   0.726   0.761   0.784   0.805   0.822   0.760   0.719   0.702   0.674   0.639   0.653   0.635   0.671   0.708   0.771   0.757   0.775   0.740   0.765   0.756   0.749   0.699   0.686   0.700   0.698   0.706   0.633   0.611   0.631   0.632   0.684   0.715   0.727   0.726   0.714   0.729   0.718   0.748   0.720   0.658   0.650   0.676   0.679   0.656   0.650   0.646   0.619   0.599   0.619   0.629   0.632   0.606   0.659   0.660   0.675   0.622   0.681   0.692   0.720   0.748   0.764   0.773   0.784   0.737   0.710   0.720   0.747   0.739   0.772   0.727   0.736   0.751   0.748   0.724   0.735   0.735   0.710   0.735   0.740   0.742   0.737   0.759   0.711   0.713   0.726   0.781   0.801   0.713   0.765   0.731   0.704   0.767   0.720   0.757   0.758   0.715   0.718   0.713   0.696   0.701   0.727   0.698   0.725   0.785   0.754   0.742   0.734   0.724   0.702   0.727   0.702   0.675   0.685   0.736   0.749   0.747   0.725   0.696   0.726   0.648   0.645   0.640   0.597   0.622   0.604   0.611   0.650   0.609   0.635   0.646   0.651   0.675   0.750   0.768   0.748   0.750   0.770   0.759   0.758   0.784   0.793   0.790   0.743   0.759   0.743   0.781   0.757   0.718   0.696   0.695   0.683   0.652   0.669
   149.80    0.777   0.728   0.735   0.725   0.785   0.766   0.755   0.724   0.752   0.768   0.750   0.732   0.785   0.774   0.731   0.677   0.625   0.654   0.651   0.683   0.645   0.689   0.703   0.699   0.619   0.642   0.633   0.629   0.678   0.687   0.681   0.703   0.715   0.658   0.655   0.674   0.661   0.718   0.703   0.746   0.712   0.761   0.816   0.776   0.803   0.796   0.787   0.714   0.698   0.654   0.626   0.670   0.618   0.687   0.737   0.737   0.748   0.733   0.725   0.718   0.697   0.759   0.696   0.716   0.716   0.685   0.646   0.643   0.652   0.678   0.639   0.691   0.681   0.728   0.713   0.666   0.670   0.684   0.662   0.627   0.651   0.641   0.651   0.620   0.683   0.656   0.644   0.623   0.625   0.620   0.690   0.654   0.612   0.633   0.637   0.671   0.668   0.697   0.705   0.729   0.785   0.775   0.734   0.758   0.752   0.746   0.750   0.750   0.789   0.775   0.785   0.746   0.745   0.750   0.761   0.744   0.755   0.745   0.779   0.738   0.682   0.756   0.727   0.710   0.753   0.793   0.768   0.715   0.740   0.710   0.697   0.741   0.738   0.726   0.737   0.733   0.718   0.666   0.689   0.656   0.700   0.749   0.761   0.718   0.728   0.725   0.671   0.672   0.726   0.718   0.660   0.669   0.659   0.711   0.749   0.724   0.706   0.731   0.715   0.671   0.673   0.647   0.652   0.618   0.612   0.627   0.597   0.636   0.592   0.562   0.626   0.658   0.716   0.746   0.726   0.711   0.720   0.774   0.726   0.792   0.806   0.771   0.723   0.743   0.764   0.794   0.743   0.726   0.674   0.655   0.633   0.653   0.631
   140.50    0.724   0.717   0.743   0.756   0.784   0.819   0.807   0.823   0.802   0.761   0.731   0.734   0.727   0.698   0.712   0.610   0.611   0.605   0.643   0.666   0.697   0.717   0.723   0.665   0.652   0.602   0.607   0.581   0.659   0.661   0.670   0.685   0.673   0.650   0.621   0.606   0.668   0.670   0.732   0.741   0.741   0.767   0.769   0.860   0.863   0.817   0.808   0.763   0.772   0.683   0.683   0.714   0.644   0.694   0.733   0.738   0.707   0.744   0.726   0.690   0.682   0.709   0.720   0.713   0.714   0.659   0.612   0.639   0.637   0.644   0.645   0.677   0.692   0.699   0.696   0.667   0.660   0.653   0.642   0.643   0.631   0.666   0.669   0.644   0.649   0.650   0.648   0.651   0.647   0.651   0.629   0.625   0.626   0.611   0.614   0.630   0.657   0.697   0.748   0.773   0.746   0.732   0.721   0.714   0.773   0.721   0.716   0.700   0.772   0.779   0.796   0.756   0.696   0.716   0.736   0.779   0.805   0.813   0.779   0.722   0.698   0.683   0.707   0.707   0.687   0.740   0.738   0.698   0.680   0.652   0.715   0.707   0.723   0.750   0.710   0.664   0.682   0.668   0.677   0.682   0.758   0.775   0.723   0.676   0.667   0.666   0.641   0.680   0.696   0.662   0.658   0.734   0.707   0.703   0.706   0.734   0.694   0.724   0.698   0.727   0.705   0.716   0.664   0.663   0.685   0.706   0.651   0.628   0.603   0.572   0.602   0.644   0.711   0.686   0.716   0.693   0.701   0.734   0.807   0.821   0.820   0.728   0.728   0.719   0.714   0.744   0.712   0.702   0.666   0.658   0.656   0.594   0.597
   131.20    0.754   0.748   0.749   0.739   0.749   0.771   0.809   0.824   0.803   0.762   0.772   0.726   0.708   0.694   0.687   0.686   0.647   0.629   0.641   0.696   0.678   0.724   0.711   0.652   0.639   0.617   0.611   0.592   0.642   0.643   0.656   0.678   0.637   0.638   0.632   0.638   0.603   0.668   0.711   0.732   0.766   0.760   0.752   0.812   0.858   0.830   0.816   0.815   0.822   0.740   0.715   0.738   0.700   0.701   0.732   0.752   0.739   0.737   0.755   0.684   0.683   0.742   0.743   0.778   0.736   0.708   0.654   0.604   0.626   0.703   0.707   0.670   0.670   0.699   0.710   0.705   0.671   0.679   0.663   0.628   0.641   0.614   0.668   0.648   0.642   0.672   0.649   0.650   0.659   0.639   0.641   0.635   0.644   0.619   0.617   0.672   0.703   0.668   0.672   0.745   0.782   0.764   0.736   0.790   0.816   0.744   0.750   0.745   0.742   0.785   0.781   0.778   0.747   0.723   0.740   0.758   0.799   0.854   0.833   0.720   0.682   0.684   0.670   0.676   0.678   0.711   0.697   0.670   0.686   0.689   0.740   0.765   0.690   0.661   0.675   0.666   0.652   0.695   0.737   0.699   0.737   0.737   0.727   0.719   0.692   0.688   0.663   0.657   0.683   0.646   0.683   0.716   0.712   0.727   0.687   0.723   0.733   0.718   0.752   0.751   0.735   0.747   0.696   0.655   0.650   0.696   0.645   0.626   0.613   0.607   0.623   0.662   0.707   0.716   0.719   0.717   0.678   0.729   0.774   0.794   0.784   0.745   0.704   0.737   0.745   0.718   0.718   0.703   0.665   0.674   0.663   0.622   0.599
   121.90    0.741   0.763   0.730   0.701   0.752   0.775   0.763   0.795   0.824   0.818   0.816   0.748   0.734   0.749   0.733   0.681   0.627   0.653   0.662   0.689   0.703   0.720   0.685   0.713   0.640   0.622   0.581   0.626   0.627   0.645   0.627   0.608   0.632   0.601   0.596   0.620   0.630   0.620   0.689   0.705   0.772   0.728   0.759   0.789   0.827   0.831   0.820   0.834   0.750   0.768   0.731   0.734   0.742   0.711   0.763   0.779   0.788   0.761   0.683   0.714   0.715   0.661   0.750   0.767   0.800   0.714   0.667   0.661   0.668   0.719   0.703   0.710   0.665   0.663   0.660   0.672   0.706   0.709   0.657   0.678   0.678   0.648   0.651   0.705   0.729   0.697   0.654   0.661   0.682   0.641   0.654   0.628   0.627   0.605   0.586   0.639   0.687   0.754   0.743   0.750   0.774   0.749   0.728   0.782   0.771   0.757   0.705   0.720   0.760   0.802   0.759   0.762   0.754   0.702   0.757   0.742   0.822   0.860   0.775   0.707   0.669   0.673   0.676   0.656   0.666   0.699   0.662   0.694   0.696   0.713   0.692   0.690   0.710   0.707   0.663   0.669   0.618   0.686   0.704   0.676   0.736   0.647   0.701   0.680   0.659   0.673   0.616   0.621   0.686   0.665   0.714   0.697   0.658   0.728   0.685   0.647   0.690   0.728   0.770   0.740   0.692   0.700   0.715   0.646   0.593   0.626   0.614   0.647   0.628   0.634   0.626   0.643   0.698   0.689   0.724   0.700   0.734   0.707   0.738   0.764   0.731   0.667   0.684   0.685   0.723   0.747   0.743   0.677   0.722   0.680   0.676   0.625   0.621
   112.60    0.740   0.695   0.692   0.717   0.791   0.802   0.844   0.822   0.828   0.867   0.827   0.750   0.781   0.748   0.755   0.701   0.706   0.717   0.696   0.696   0.718   0.676   0.697   0.675   0.640   0.675   0.631   0.646   0.638   0.667   0.586   0.578   0.586   0.616   0.593   0.579   0.623   0.651   0.656   0.646   0.720   0.759   0.734   0.739   0.751   0.740   0.746   0.782   0.794   0.770   0.754   0.728   0.757   0.754   0.761   0.821   0.793   0.755   0.733   0.748   0.682   0.683   0.744   0.802   0.762   0.687   0.735   0.664   0.714   0.715   0.718   0.711   0.724   0.717   0.714   0.661   0.696   0.698   0.695   0.650   0.659   0.689   0.717   0.753   0.783   0.743   0.717   0.680   0.693   0.668   0.638   0.641   0.600   0.633   0.611   0.617   0.667   0.717   0.766   0.805   0.787   0.769   0.796   0.774   0.762   0.777   0.715   0.716   0.762   0.793   0.791   0.758   0.696   0.678   0.708   0.706   0.804   0.813   0.733   0.694   0.678   0.660   0.659   0.700   0.704   0.708   0.750   0.764   0.690   0.691   0.695   0.711   0.706   0.709   0.682   0.631   0.633   0.647   0.643   0.646   0.676   0.617   0.661   0.710   0.673   0.628   0.661   0.648   0.667   0.623   0.630   0.661   0.681   0.651   0.658   0.699   0.697   0.731   0.734   0.724   0.680   0.700   0.724   0.668   0.611   0.600   0.650   0.658   0.640   0.624   0.608   0.667   0.658   0.669   0.705   0.699   0.674   0.720   0.719   0.735   0.750   0.658   0.654   0.665   0.715   0.710   0.702   0.647   0.729   0.726   0.690   0.633   0.658
   103.30    0.746   0.700   0.652   0.689   0.787   0.821   0.819   0.826   0.895   0.859   0.812   0.768   0.725   0.803   0.804   0.735   0.748   0.724   0.735   0.700   0.657   0.675   0.634   0.585   0.660   0.672   0.683   0.646   0.597   0.622   0.665   0.657   0.615   0.622   0.580   0.562   0.633   0.663   0.644   0.607   0.692   0.711   0.671   0.733   0.706   0.716   0.709   0.754   0.786   0.690   0.717   0.699   0.725   0.798   0.774   0.745   0.792   0.766   0.744   0.698   0.731   0.702   0.719   0.720   0.722   0.706   0.718   0.720   0.699   0.740   0.723   0.732   0.736   0.730   0.697   0.659   0.695   0.698   0.728   0.744   0.673   0.706   0.721   0.769   0.770   0.741   0.694   0.688   0.680   0.655   0.628   0.633   0.625   0.645   0.661   0.677   0.661   0.732   0.755   0.799   0.759   0.791   0.781   0.749   0.770   0.776   0.773   0.767   0.766   0.765   0.817   0.755   0.636   0.606   0.666   0.687   0.749   0.784   0.783   0.717   0.734   0.685   0.698   0.663   0.658   0.696   0.707   0.697   0.696   0.732   0.684   0.705   0.709   0.695   0.664   0.649   0.620   0.641   0.654   0.671   0.637   0.638   0.635   0.680   0.644   0.621   0.645   0.667   0.644   0.587   0.619   0.642   0.672   0.718   0.686   0.703   0.718   0.726   0.726   0.742   0.730   0.697   0.719   0.686   0.616   0.727   0.695   0.679   0.663   0.573   0.618   0.623   0.655   0.626   0.646   0.663   0.716   0.736   0.736   0.722   0.714   0.652   0.601   0.653   0.672   0.716   0.655   0.663   0.700   0.761   0.754   0.694   0.725
    94.00    0.739   0.711   0.738   0.726   0.769   0.784   0.770   0.799   0.810   0.782   0.815   0.789   0.828   0.792   0.822   0.762   0.775   0.745   0.741   0.674   0.661   0.636   0.604   0.590   0.618   0.599   0.635   0.663   0.658   0.643   0.669   0.657   0.636   0.638   0.598   0.619   0.619   0.656   0.653   0.640   0.684   0.693   0.719   0.678   0.694   0.686   0.739   0.775   0.750   0.699   0.707   0.762   0.744   0.766   0.791   0.775   0.808   0.747   0.783   0.742   0.706   0.714   0.713   0.703   0.724   0.682   0.712   0.700   0.736   0.719   0.702   0.684   0.756   0.735   0.651   0.677   0.719   0.741   0.692   0.677   0.652   0.659   0.674   0.713   0.740   0.691   0.681   0.688   0.683   0.649   0.667   0.661   0.645   0.688   0.661   0.687   0.689   0.713   0.748   0.777   0.734   0.736   0.738   0.794   0.753   0.778   0.783   0.727   0.711   0.732   0.745   0.695   0.646   0.645   0.689   0.680   0.701   0.726   0.730   0.757   0.698   0.691   0.657   0.644   0.645   0.670   0.618   0.664   0.668   0.652   0.692   0.696   0.687   0.677   0.697   0.685   0.651   0.653   0.649   0.694   0.689   0.667   0.593   0.668   0.670   0.606   0.637   0.662   0.590   0.578   0.625   0.622   0.712   0.697   0.672   0.682   0.716   0.692   0.690   0.709   0.728   0.691   0.696   0.659   0.631   0.677   0.688   0.680   0.677   0.617   0.631   0.632   0.645   0.653   0.644   0.674   0.735   0.734   0.746   0.739   0.682   0.671   0.669   0.626   0.695   0.670   0.686   0.644   0.682   0.686   0.715   0.672   0.707
    84.70    0.757   0.773   0.778   0.811   0.756   0.769   0.782   0.759   0.798   0.841   0.803   0.799   0.813   0.799   0.762   0.794   0.747   0.767   0.736   0.676   0.625   0.606   0.560   0.608   0.616   0.659   0.638   0.646   0.669   0.626   0.631   0.650   0.651   0.622   0.613   0.620   0.636   0.686   0.651   0.611   0.625   0.656   0.759   0.715   0.716   0.696   0.744   0.711   0.714   0.738   0.701   0.732   0.745   0.765   0.786   0.816   0.821   0.812   0.730   0.732   0.736   0.716   0.707   0.690   0.684   0.671   0.663   0.670   0.769   0.773   0.730   0.758   0.744   0.726   0.685   0.641   0.680   0.693   0.696   0.697   0.695   0.681   0.625   0.668   0.648   0.637   0.705   0.676   0.696   0.650   0.648   0.630   0.635   0.635   0.689   0.707   0.713   0.727   0.736   0.737   0.781   0.751   0.736   0.766   0.749   0.750   0.711   0.705   0.695   0.695   0.706   0.718   0.713   0.697   0.728   0.678   0.701   0.705   0.737   0.718   0.686   0.669   0.607   0.591   0.636   0.632   0.671   0.662   0.660   0.670   0.706   0.700   0.691   0.699   0.725   0.665   0.655   0.689   0.692   0.693   0.675   0.682   0.612   0.626   0.635   0.639   0.637   0.671   0.665   0.671   0.665   0.644   0.700   0.725   0.700   0.722   0.705   0.681   0.661   0.628   0.696   0.702   0.655   0.610   0.627   0.615   0.617   0.679   0.698   0.651   0.638   0.628   0.616   0.664   0.667   0.635   0.712   0.743   0.719   0.701   0.702   0.662   0.645   0.670   0.698   0.716   0.649   0.666   0.706   0.687   0.671   0.644   0.696
    75.40    0.753   0.754   0.765   0.822   0.794   0.798   0.768   0.771   0.780   0.820   0.839   0.815   0.817   0.783   0.752   0.752   0.707   0.741   0.766   0.652   0.614   0.583   0.577   0.592   0.621   0.659   0.648   0.612   0.656   0.646   0.646   0.635   0.644   0.601   0.606   0.610   0.636   0.678   0.679   0.657   0.686   0.691   0.706   0.742   0.716   0.690   0.707   0.720   0.714   0.693   0.742   0.671   0.706   0.743   0.793   0.810   0.806   0.819   0.711   0.725   0.703   0.678   0.741   0.700   0.698   0.707   0.732   0.729   0.802   0.812   0.804   0.773   0.707   0.696   0.665   0.648   0.659   0.672   0.674   0.684   0.701   0.666   0.671   0.700   0.661   0.655   0.698   0.703   0.653   0.654   0.632   0.608   0.624   0.665   0.680   0.687   0.715   0.717   0.778   0.750   0.764   0.764   0.775   0.759   0.711   0.707   0.687   0.693   0.661   0.655   0.674   0.682   0.717   0.723   0.729   0.710   0.640   0.677   0.687   0.677   0.602   0.625   0.662   0.640   0.655   0.657   0.637   0.628   0.683   0.728   0.726   0.699   0.657   0.687   0.703   0.704   0.675   0.681   0.664   0.692   0.690   0.674   0.662   0.696   0.665   0.641   0.672   0.664   0.665   0.654   0.668   0.630   0.648   0.670   0.660   0.671   0.679   0.680   0.642   0.633   0.665   0.653   0.677   0.695   0.671   0.643   0.657   0.704   0.671   0.648   0.615   0.645   0.653   0.671   0.634   0.661   0.699   0.672   0.699   0.722   0.699   0.675   0.656   0.687   0.702   0.691   0.661   0.675   0.693   0.718   0.655   0.618   0.691
    66.10    0.751   0.711   0.788   0.774   0.738   0.710   0.723   0.749   0.766   0.804   0.789   0.769   0.794   0.742   0.689   0.692   0.717   0.756   0.717   0.614   0.585   0.613   0.618   0.585   0.583   0.612   0.601   0.639   0.679   0.650   0.601   0.621   0.632   0.662   0.597   0.616   0.623   0.610   0.626   0.646   0.664   0.705   0.711   0.695   0.667   0.697   0.706   0.647   0.627   0.664   0.671   0.670   0.719   0.707   0.759   0.822   0.782   0.808   0.747   0.683   0.699   0.706   0.712   0.728   0.733   0.765   0.780   0.771   0.805   0.832   0.801   0.761   0.740   0.759   0.673   0.655   0.651   0.628   0.668   0.655   0.667   0.627   0.636   0.678   0.662   0.671   0.657   0.666   0.669   0.625   0.639   0.642   0.636   0.631   0.698   0.702   0.679   0.705   0.724   0.729   0.736   0.806   0.749   0.709   0.789   0.746   0.722   0.667   0.650   0.657   0.698   0.675   0.730   0.722   0.693   0.685   0.652   0.648   0.686   0.678   0.653   0.646   0.651   0.681   0.712   0.643   0.636   0.630   0.668   0.698   0.674   0.677   0.672   0.635   0.651   0.654   0.654   0.700   0.663   0.696   0.666   0.670   0.637   0.662   0.649   0.646   0.645   0.671   0.625   0.616   0.671   0.604   0.617   0.595   0.617   0.661   0.692   0.630   0.637   0.630   0.643   0.626   0.635   0.685   0.682   0.662   0.657   0.646   0.643   0.667   0.636   0.692   0.680   0.675   0.636   0.693   0.626   0.640   0.685   0.679   0.687   0.683   0.682   0.674   0.664   0.645   0.648   0.643   0.678   0.668   0.669   0.684   0.706
    56.80    0.770   0.756   0.798   0.801   0.792   0.699   0.747   0.715   0.727   0.774   0.799   0.761   0.809   0.771   0.706   0.692   0.690   0.757   0.673   0.654   0.676   0.636   0.603   0.625   0.616   0.645   0.608   0.610   0.627   0.625   0.595   0.596   0.607   0.615   0.660   0.648   0.647   0.670   0.642   0.653   0.664   0.659   0.646   0.679   0.710   0.709   0.675   0.654   0.686   0.688   0.712   0.722   0.733   0.766   0.787   0.800   0.822   0.774   0.740   0.747   0.717   0.721   0.765   0.762   0.768   0.780   0.800   0.794   0.791   0.789   0.732   0.736   0.738   0.740   0.737   0.682   0.680   0.622   0.695   0.628   0.629   0.625   0.636   0.668   0.662   0.669   0.603   0.600   0.630   0.624   0.644   0.564   0.589   0.633   0.709   0.689   0.653   0.655   0.669   0.696   0.729   0.733   0.708   0.726   0.732   0.744   0.710   0.686   0.680   0.703   0.619   0.615   0.647   0.692   0.717   0.660   0.689   0.673   0.670   0.675   0.665   0.666   0.679   0.673   0.720   0.645   0.640   0.625   0.642   0.664   0.665   0.644   0.632   0.609   0.616   0.636   0.659   0.681   0.681   0.673   0.620   0.619   0.629   0.658   0.666   0.679   0.643   0.647   0.615   0.630   0.659   0.601   0.610   0.606   0.639   0.618   0.653   0.634   0.600   0.631   0.636   0.624   0.623   0.641   0.617   0.599   0.644   0.605   0.590   0.643   0.644   0.658   0.671   0.656   0.620   0.681   0.619   0.686   0.730   0.698   0.687   0.680   0.667   0.644   0.624   0.602   0.603   0.561   0.634   0.647   0.692   0.726   0.739
    47.50    0.820   0.818   0.802   0.823   0.809   0.761   0.788   0.762   0.784   0.791   0.783   0.751   0.744   0.765   0.719   0.744   0.675   0.723   0.719   0.691   0.695   0.649   0.647   0.673   0.651   0.683   0.655   0.655   0.602   0.615   0.604   0.607   0.638   0.618   0.632   0.658   0.621   0.670   0.637   0.632   0.642   0.652   0.684   0.707   0.703   0.710   0.668   0.683   0.657   0.651   0.733   0.753   0.761   0.812   0.800   0.821   0.837   0.757   0.737   0.767   0.788   0.772   0.746   0.772   0.746   0.729   0.769   0.773   0.735   0.760   0.727   0.768   0.757   0.727   0.718   0.704   0.683   0.689   0.681   0.638   0.617   0.624   0.673   0.702   0.699   0.660   0.617   0.606   0.605   0.615   0.599   0.618   0.620   0.686   0.723   0.704   0.669   0.724   0.690   0.702   0.658   0.675   0.656   0.724   0.734   0.759   0.775   0.730   0.688   0.655   0.577   0.597   0.622   0.653   0.680   0.692   0.702   0.701   0.673   0.691   0.639   0.691   0.665   0.734   0.736   0.689   0.666   0.640   0.624   0.646   0.649   0.630   0.641   0.621   0.606   0.690   0.703   0.673   0.639   0.645   0.647   0.604   0.622   0.655   0.671   0.699   0.709   0.719   0.655   0.608   0.634   0.623   0.545   0.591   0.593   0.606   0.631   0.624   0.620   0.617   0.611   0.644   0.648   0.644   0.631   0.616   0.626   0.606   0.590   0.648   0.630   0.630   0.656   0.625   0.591   0.642   0.647   0.699   0.731   0.681   0.696   0.704   0.692   0.696   0.585   0.568   0.581   0.622   0.642   0.689   0.745   0.735   0.727
    38.20    0.761   0.806   0.851   0.798   0.762   0.760   0.763   0.827   0.812   0.848   0.771   0.774   0.788   0.751   0.700   0.673   0.695   0.693   0.671   0.694   0.693   0.676   0.629   0.642   0.648   0.644   0.688   0.652   0.644   0.610   0.575   0.597   0.666   0.677   0.608   0.651   0.656   0.630   0.634   0.649   0.624   0.647   0.656   0.667   0.672   0.684   0.657   0.691   0.666   0.685   0.751   0.799   0.827   0.844   0.832   0.850   0.789   0.712   0.729   0.787   0.791   0.753   0.783   0.759   0.730   0.689   0.758   0.733   0.737   0.754   0.778   0.731   0.755   0.750   0.663   0.681   0.672   0.703   0.676   0.622   0.607   0.608   0.653   0.736   0.735   0.678   0.651   0.642   0.674   0.657   0.622   0.617   0.670   0.693   0.723   0.719   0.721   0.697   0.670   0.691   0.665   0.616   0.654   0.761   0.749   0.767   0.754   0.744   0.690   0.671   0.636   0.575   0.569   0.581   0.626   0.691   0.674   0.638   0.658   0.673   0.689   0.660   0.709   0.767   0.775   0.752   0.684   0.637   0.639   0.680   0.642   0.660   0.651   0.654   0.636   0.680   0.700   0.697   0.675   0.630   0.610   0.623   0.610   0.673   0.706   0.690   0.718   0.711   0.698   0.645   0.622   0.595   0.560   0.567   0.606   0.618   0.666   0.662   0.614   0.597   0.596   0.620   0.647   0.661   0.671   0.637   0.595   0.643   0.649   0.677   0.637   0.618   0.560   0.603   0.588   0.597   0.669   0.669   0.695   0.631   0.673   0.735   0.762   0.713   0.673   0.636   0.602   0.614   0.613   0.685   0.743   0.696   0.681
    28.90    0.763   0.824   0.826   0.778   0.728   0.728   0.788   0.805   0.830   0.786   0.790   0.799   0.709   0.722   0.654   0.656   0.717   0.717   0.705   0.683   0.686   0.618   0.621   0.678   0.679   0.675   0.649   0.672   0.650   0.631   0.618   0.624   0.648   0.645   0.627   0.624   0.625   0.635   0.612   0.653   0.646   0.643   0.617   0.657   0.679   0.659   0.641   0.677   0.702   0.698   0.743   0.792   0.812   0.849   0.831   0.815   0.775   0.754   0.719   0.732   0.803   0.796   0.747   0.732   0.707   0.715   0.731   0.730   0.753   0.709   0.690   0.737   0.746   0.787   0.695   0.671   0.636   0.702   0.711   0.703   0.750   0.684   0.676   0.682   0.669   0.718   0.670   0.692   0.673   0.675   0.627   0.672   0.690   0.744   0.711   0.667   0.692   0.675   0.661   0.615   0.581   0.649   0.681   0.753   0.740   0.769   0.701   0.712   0.704   0.663   0.595   0.574   0.580   0.577   0.571   0.636   0.623   0.610   0.657   0.710   0.668   0.718   0.706   0.750   0.738   0.697   0.725   0.657   0.648   0.663   0.685   0.630   0.629   0.646   0.648   0.715   0.717   0.705   0.647   0.609   0.595   0.614   0.656   0.698   0.707   0.683   0.727   0.701   0.687   0.664   0.627   0.611   0.574   0.546   0.612   0.587   0.613   0.638   0.648   0.635   0.622   0.633   0.619   0.617   0.646   0.666   0.665   0.666   0.642   0.645   0.647   0.610   0.576   0.617   0.615   0.619   0.645   0.652   0.674   0.673   0.717   0.729   0.759   0.711   0.630   0.620   0.629   0.666   0.667   0.696   0.715   0.710   0.704
    19.60    0.747   0.752   0.761   0.757   0.745   0.751   0.780   0.805   0.792   0.777   0.750   0.698   0.702   0.685   0.677   0.693   0.708   0.674   0.694   0.676   0.684   0.671   0.659   0.634   0.636   0.648   0.687   0.654   0.670   0.633   0.638   0.601   0.620   0.669   0.611   0.658   0.634   0.610   0.630   0.644   0.657   0.661   0.638   0.666   0.701   0.684   0.704   0.676   0.686   0.688   0.706   0.759   0.762   0.830   0.884   0.824   0.777   0.779   0.757   0.768   0.815   0.770   0.794   0.787   0.777   0.733   0.735   0.704   0.732   0.728   0.690   0.722   0.789   0.787   0.700   0.693   0.663   0.691   0.669   0.714   0.723   0.743   0.714   0.705   0.677   0.732   0.753   0.777   0.709   0.669   0.689   0.721   0.736   0.758   0.696   0.684   0.644   0.644   0.617   0.624   0.663   0.663   0.683   0.742   0.748   0.748   0.718   0.717   0.641   0.649   0.618   0.617   0.645   0.603   0.628   0.644   0.621   0.650   0.698   0.708   0.713   0.681   0.678   0.701   0.701   0.720   0.718   0.739   0.663   0.682   0.652   0.654   0.651   0.648   0.692   0.734   0.715   0.681   0.643   0.636   0.576   0.614   0.635   0.686   0.655   0.701   0.720   0.669   0.649   0.658   0.628   0.628   0.558   0.575   0.595   0.625   0.667   0.647   0.647   0.679   0.660   0.694   0.668   0.661   0.653   0.656   0.659   0.668   0.613   0.610   0.616   0.617   0.621   0.622   0.641   0.602   0.634   0.629   0.661   0.653   0.661   0.704   0.724   0.666   0.604   0.548   0.596   0.666   0.702   0.717   0.687   0.664   0.667
    10.30    0.723   0.708   0.730   0.733   0.779   0.744   0.721   0.745   0.751   0.765   0.746   0.705   0.715   0.737   0.703   0.692   0.691   0.667   0.731   0.706   0.738   0.718   0.689   0.645   0.628   0.666   0.650   0.664   0.633   0.631   0.593   0.612   0.610   0.641   0.642   0.648   0.650   0.606   0.614   0.632   0.665   0.655   0.620   0.676   0.672   0.661   0.732   0.662   0.713   0.720   0.718   0.726   0.734   0.748   0.819   0.820   0.770   0.777   0.783   0.814   0.799   0.783   0.766   0.791   0.758   0.715   0.683   0.661   0.699   0.695   0.717   0.732   0.787   0.801   0.767   0.703   0.715   0.656   0.661   0.679   0.677   0.693   0.718   0.715   0.712   0.773   0.832   0.801   0.734   0.713   0.656   0.754   0.793   0.734   0.740   0.690   0.670   0.625   0.632   0.614   0.670   0.626   0.668   0.684   0.749   0.768   0.730   0.708   0.638   0.618   0.596   0.602   0.636   0.660   0.667   0.707   0.694   0.652   0.688   0.720   0.700   0.645   0.695   0.662   0.648   0.677   0.689   0.690   0.691   0.701   0.635   0.631   0.642   0.669   0.679   0.692   0.701   0.659   0.687   0.651   0.610   0.611   0.666   0.662   0.691   0.744   0.715   0.735   0.651   0.678   0.621   0.612   0.584   0.621   0.603   0.644   0.688   0.689   0.720   0.691   0.689   0.655   0.673   0.655   0.644   0.633   0.585   0.590   0.654   0.629   0.636   0.669   0.628   0.610   0.611   0.630   0.592   0.641   0.693   0.669   0.686   0.688   0.691   0.670   0.603   0.609   0.640   0.672   0.681   0.734   0.688   0.660   0.679
     1.00    0.716   0.735   0.754   0.772   0.761   0.748   0.704   0.713   0.762   0.755   0.767   0.762   0.778   0.753   0.708   0.716   0.709   0.700   0.702   0.713   0.752   0.755   0.689   0.644   0.630   0.640   0.637   0.609   0.635   0.623   0.624   0.604   0.629   0.639   0.615   0.607   0.641   0.645   0.646   0.655   0.644   0.610   0.674   0.637   0.660   0.685   0.710   0.679   0.673   0.674   0.684   0.700   0.718   0.686   0.750   0.770   0.761   0.797   0.826   0.778   0.826   0.806   0.763   0.805   0.746   0.744   0.726   0.725   0.671   0.695   0.697   0.702   0.713   0.739   0.794   0.772   0.723   0.657   0.616   0.661   0.654   0.699   0.717   0.742   0.751   0.754   0.794   0.794   0.740   0.695   0.736   0.716   0.767   0.733   0.725   0.707   0.637   0.629   0.611   0.646   0.685   0.681   0.662   0.691   0.689   0.725   0.740   0.664   0.638   0.612   0.633   0.650   0.670   0.701   0.693   0.704   0.706   0.710   0.736   0.717   0.687   0.743   0.691   0.671   0.665   0.680   0.679   0.714   0.723   0.680   0.715   0.655   0.606   0.622   0.664   0.658   0.679   0.659   0.656   0.670   0.615   0.627   0.661   0.651   0.681   0.726   0.721   0.650   0.675   0.647   0.602   0.578   0.593   0.627   0.616   0.664   0.698   0.705   0.697   0.698   0.696   0.641   0.670   0.656   0.657   0.621   0.577   0.603   0.605   0.578   0.579   0.637   0.648   0.659   0.622   0.610   0.647   0.637   0.659   0.679   0.664   0.678   0.675   0.618   0.590   0.596   0.648   0.649   0.666   0.706   0.681   0.652   0.654

   Height   Standard deviation at grid points for the v component:
   354.40    0.587   0.598   0.586   0.563   0.560   0.573   0.574   0.616   0.621   0.614   0.587   0.569   0.582   0.592   0.583   0.577   0.596   0.568   0.548   0.511   0.527   0.552   0.513   0.526   0.545   0.546   0.564   0.542   0.554   0.544   0.582   0.593   0.574   0.557   0.567   0.566   0.570   0.555   0.577   0.619   0.580   0.604   0.596   0.589   0.575   0.597   0.601   0.572   0.569   0.597   0.593   0.612   0.601   0.595   0.595   0.566   0.552   0.586   0.599   0.581   0.561   0.581   0.572   0.590   0.597   0.575   0.586   0.582   0.592   0.548   0.517   0.557   0.612   0.604   0.618   0.582   0.552   0.551   0.589   0.610   0.569   0.579   0.564   0.541   0.521   0.521   0.547   0.555   0.569   0.586   0.575   0.589   0.584   0.592   0.607   0.604   0.609   0.611   0.607   0.585   0.584   0.572   0.572   0.585   0.560   0.582   0.550   0.590   0.579   0.579   0.589   0.595   0.567   0.579   0.622   0.593   0.597   0.614   0.637   0.658   0.644   0.617   0.579   0.547   0.561   0.557   0.581   0.583   0.587   0.605   0.594   0.609   0.606   0.596   0.595   0.619   0.639   0.624   0.660   0.663   0.651   0.660   0.654   0.660   0.662   0.662   0.666   0.647   0.639   0.629   0.589   0.575   0.607   0.588   0.601   0.633   0.613   0.593   0.570   0.546   0.552   0.563   0.590   0.584   0.617   0.561   0.572   0.566   0.566   0.513   0.505   0.529   0.533   0.507   0.562   0.538   0.537   0.546   0.514   0.552   0.555   0.595   0.589   0.583   0.607   0.600   0.621   0.615   0.605   0.566   0.556   0.571   0.577
   345.10    0.595   0.608   0.590   0.573   0.560   0.581   0.622   0.593   0.601   0.604   0.602   0.561   0.566   0.595   0.580   0.594   0.612   0.591   0.589   0.535   0.547   0.572   0.535   0.535   0.533   0.556   0.554   0.556   0.543   0.575   0.564   0.569   0.570   0.549   0.570   0.577   0.580   0.590   0.604   0.593   0.574   0.607   0.601   0.557   0.578   0.598   0.581   0.554   0.575   0.599   0.592   0.614   0.616   0.631   0.574   0.569   0.570   0.560   0.580   0.562   0.563   0.556   0.545   0.557   0.568   0.553   0.537   0.543   0.541   0.541   0.547   0.543   0.583   0.602   0.600   0.592   0.555   0.563   0.564   0.602   0.576   0.576   0.551   0.533   0.506   0.497   0.527   0.544   0.549   0.552   0.549   0.594   0.588   0.572   0.596   0.612   0.629   0.629   0.605   0.589   0.599   0.576   0.584   0.591   0.571   0.556   0.564   0.577   0.571   0.598   0.590   0.561   0.537   0.544   0.582   0.588   0.579   0.630   0.654   0.690   0.632   0.619   0.585   0.553   0.565   0.542   0.558   0.585   0.578   0.573   0.575   0.598   0.592   0.628   0.594   0.596   0.609   0.623   0.639   0.661   0.657   0.627   0.631   0.668   0.682   0.685   0.663   0.678   0.620   0.584   0.579   0.599   0.571   0.592   0.595   0.614   0.602   0.604   0.550   0.549   0.550   0.593   0.601   0.595   0.561   0.564   0.578   0.586   0.542   0.532   0.528   0.564   0.535   0.540   0.552   0.544   0.541   0.545   0.539   0.530   0.565   0.602   0.583   0.574   0.569   0.608   0.630   0.609   0.598   0.572   0.575   0.564   0.596
   335.80    0.612   0.627   0.609   0.568   0.589   0.590   0.560   0.598   0.612   0.629   0.602   0.628   0.566   0.573   0.589   0.608   0.620   0.599   0.594   0.561   0.541   0.547   0.536   0.565   0.535   0.547   0.535   0.545   0.551   0.546   0.548   0.583   0.554   0.541   0.560   0.596   0.607   0.620   0.628   0.613   0.586   0.586   0.570   0.563   0.565   0.583   0.580   0.561   0.589   0.594   0.608   0.615   0.617   0.600   0.573   0.591   0.576   0.565   0.559   0.575   0.551   0.555   0.544   0.548   0.560   0.555   0.551   0.544   0.553   0.576   0.572   0.559   0.562   0.568   0.604   0.569   0.568   0.602   0.595   0.579   0.596   0.578   0.531   0.532   0.536   0.527   0.530   0.531   0.543   0.580   0.586   0.558   0.584   0.601   0.606   0.626   0.600   0.623   0.577   0.611   0.576   0.546   0.574   0.567   0.574   0.570   0.562   0.561   0.553   0.593   0.586   0.549   0.573   0.548   0.567   0.589   0.599   0.625   0.617   0.620   0.625   0.623   0.582   0.593   0.598   0.574   0.555   0.582   0.575   0.576   0.572   0.598   0.609   0.608   0.607   0.606   0.591   0.586   0.607   0.627   0.625   0.650   0.652   0.657   0.682   0.686   0.653   0.624   0.640   0.603   0.604   0.580   0.599   0.574   0.594   0.590   0.613   0.611   0.586   0.569   0.563   0.586   0.614   0.587   0.546   0.546   0.571   0.575   0.553   0.550   0.550   0.566   0.549   0.538   0.588   0.555   0.565   0.566   0.573   0.554   0.561   0.568   0.556   0.564   0.568   0.582   0.613   0.603   0.596   0.593   0.598   0.574   0.617
   326.50    0.609   0.594   0.588   0.568   0.583   0.584   0.581   0.587   0.605   0.616   0.615   0.589   0.588   0.577   0.586   0.584   0.610   0.584   0.562   0.573   0.552   0.558   0.528   0.564   0.544   0.527   0.570   0.555   0.566   0.538   0.520   0.530   0.569   0.579   0.585   0.613   0.626   0.588   0.621   0.599   0.602   0.573   0.571   0.597   0.619   0.570   0.571   0.556   0.575   0.588   0.569   0.579   0.566   0.591   0.540   0.531   0.556   0.559   0.550   0.544   0.562   0.553   0.561   0.557   0.557   0.540   0.539   0.563   0.589   0.591   0.571   0.581   0.556   0.559   0.592   0.575   0.599   0.617   0.611   0.589   0.593   0.551   0.537   0.550   0.529   0.545   0.543   0.521   0.547   0.551   0.568   0.596   0.606   0.616   0.608   0.624   0.610   0.602   0.583   0.608   0.547   0.565   0.580   0.544   0.572   0.549   0.537   0.547   0.557   0.556   0.561   0.556   0.560   0.568   0.585   0.588   0.578   0.589   0.603   0.607   0.608   0.609   0.621   0.625   0.616   0.573   0.573   0.567   0.567   0.592   0.599   0.583   0.581   0.583   0.583   0.600   0.585   0.585   0.611   0.600   0.633   0.653   0.618   0.615   0.650   0.679   0.640   0.639   0.619   0.574   0.565   0.543   0.557   0.570   0.594   0.585   0.583   0.607   0.590   0.596   0.552   0.578   0.600   0.565   0.542   0.549   0.542   0.544   0.560   0.576   0.582   0.574   0.584   0.551   0.579   0.565   0.560   0.550   0.560   0.535   0.550   0.547   0.539   0.540   0.556   0.596   0.607   0.602   0.582   0.579   0.590   0.595   0.581
[...]
   103.30    0.351   0.345   0.338   0.343   0.346   0.349   0.364   0.352   0.366   0.379   0.377   0.351   0.341   0.340   0.358   0.362   0.356   0.349   0.341   0.338   0.356   0.362   0.356   0.343   0.348   0.349   0.349   0.358   0.368   0.363   0.366   0.366   0.361   0.361   0.358   0.357   0.348   0.359   0.357   0.354   0.363   0.371   0.366   0.378   0.375   0.375   0.362   0.365   0.361   0.370   0.373   0.378   0.374   0.364   0.354   0.356   0.363   0.352   0.362   0.358   0.363   0.358   0.365   0.373   0.380   0.378   0.387   0.361   0.369   0.365   0.373   0.366   0.364   0.366   0.363   0.359   0.377   0.351   0.362   0.352   0.367   0.373   0.373   0.367   0.364   0.355   0.358   0.370   0.356   0.348   0.345   0.347   0.348   0.344   0.343   0.342   0.345   0.354   0.367   0.354   0.371   0.367   0.363   0.368   0.370   0.365   0.347   0.357   0.358   0.360   0.355   0.343   0.353   0.349   0.347   0.354   0.352   0.361   0.345   0.358   0.361   0.361   0.366   0.363   0.367   0.351   0.355   0.355   0.377   0.363   0.370   0.361   0.358   0.361   0.359   0.362   0.359   0.363   0.359   0.350   0.359   0.373   0.369   0.369   0.373   0.376   0.370   0.357   0.357   0.365   0.360   0.345   0.349   0.341   0.331   0.352   0.358   0.364   0.370   0.365   0.362   0.366   0.362   0.362   0.380   0.359   0.355   0.357   0.357   0.361   0.362   0.353   0.355   0.354   0.356   0.356   0.364   0.362   0.358   0.363   0.370   0.359   0.356   0.359   0.359   0.359   0.360   0.356   0.354   0.345   0.349   0.354   0.364
    94.00    0.339   0.334   0.346   0.348   0.353   0.347   0.352   0.348   0.358   0.360   0.367   0.359   0.354   0.347   0.360   0.374   0.369   0.360   0.342   0.343   0.339   0.357   0.362   0.348   0.349   0.354   0.344   0.362   0.361   0.358   0.367   0.373   0.362   0.364   0.355   0.361   0.363   0.353   0.360   0.357   0.359   0.362   0.368   0.368   0.367   0.365   0.365   0.361   0.353   0.363   0.373   0.372   0.368   0.356   0.361   0.359   0.363   0.365   0.355   0.362   0.364   0.365   0.355   0.362   0.367   0.360   0.374   0.366   0.362   0.364   0.364   0.355   0.363   0.373   0.369   0.360   0.360   0.355   0.359   0.356   0.364   0.359   0.386   0.371   0.368   0.357   0.352   0.353   0.358   0.351   0.341   0.353   0.358   0.359   0.344   0.348   0.342   0.359   0.366   0.363   0.364   0.372   0.376   0.366   0.359   0.362   0.353   0.356   0.358   0.348   0.349   0.347   0.343   0.355   0.346   0.357   0.352   0.360   0.359   0.361   0.362   0.363   0.369   0.360   0.359   0.365   0.341   0.357   0.361   0.368   0.365   0.370   0.367   0.371   0.360   0.357   0.368   0.364   0.365   0.357   0.371   0.372   0.378   0.367   0.363   0.367   0.369   0.359   0.349   0.353   0.367   0.357   0.354   0.345   0.343   0.345   0.361   0.375   0.369   0.365   0.370   0.380   0.367   0.366   0.365   0.364   0.365   0.363   0.367   0.365   0.360   0.350   0.350   0.354   0.358   0.369   0.362   0.355   0.355   0.363   0.373   0.359   0.363   0.366   0.367   0.350   0.354   0.367   0.362   0.352   0.360   0.359   0.364
    84.70    0.348   0.340   0.351   0.361   0.357   0.350   0.336   0.353   0.348   0.349   0.353   0.361   0.365   0.357   0.363   0.357   0.354   0.356   0.339   0.332   0.342   0.348   0.351   0.353   0.351   0.357   0.345   0.355   0.361   0.375   0.363   0.354   0.353   0.357   0.350   0.363   0.374   0.375   0.364   0.356   0.348   0.364   0.374   0.367   0.358   0.352   0.359   0.367   0.364   0.360   0.373   0.379   0.361   0.361   0.369   0.368   0.360   0.358   0.351   0.349   0.347   0.355   0.363   0.355   0.357   0.362   0.379   0.366   0.361   0.366   0.369   0.360   0.355   0.359   0.359   0.373   0.358   0.366   0.363   0.373   0.378   0.363   0.364   0.373   0.361   0.352   0.355   0.356   0.367   0.354   0.351   0.341   0.359   0.356   0.349   0.344   0.356   0.352   0.376   0.373   0.364   0.373   0.372   0.371   0.372   0.362   0.359   0.360   0.357   0.355   0.359   0.351   0.347   0.349   0.365   0.361   0.363   0.372   0.365   0.355   0.365   0.352   0.367   0.360   0.366   0.352   0.352   0.368   0.364   0.378   0.374   0.373   0.377   0.370   0.355   0.357   0.351   0.369   0.350   0.356   0.363   0.363   0.361   0.364   0.358   0.355   0.359   0.357   0.354   0.353   0.355   0.357   0.360   0.353   0.341   0.354   0.351   0.360   0.357   0.359   0.353   0.364   0.370   0.370   0.370   0.372   0.366   0.364   0.351   0.366   0.357   0.347   0.348   0.349   0.355   0.350   0.361   0.358   0.357   0.360   0.370   0.370   0.380   0.364   0.360   0.360   0.357   0.362   0.360   0.351   0.347   0.343   0.354
    75.40    0.345   0.345   0.347   0.369   0.354   0.352   0.353   0.342   0.339   0.336   0.357   0.362   0.358   0.368   0.369   0.364   0.353   0.356   0.342   0.351   0.339   0.345   0.341   0.345   0.343   0.348   0.355   0.355   0.348   0.357   0.357   0.359   0.353   0.351   0.355   0.356   0.361   0.374   0.371   0.363   0.356   0.368   0.369   0.371   0.364   0.360   0.360   0.372   0.367   0.368   0.362   0.356   0.349   0.354   0.357   0.366   0.363   0.367   0.357   0.353   0.350   0.340   0.351   0.357   0.359   0.354   0.366   0.375   0.378   0.369   0.374   0.359   0.353   0.365   0.371   0.372   0.363   0.360   0.370   0.368   0.368   0.362   0.373   0.373   0.356   0.363   0.357   0.355   0.360   0.360   0.354   0.349   0.349   0.352   0.341   0.349   0.354   0.360   0.358   0.367   0.366   0.377   0.381   0.372   0.380   0.373   0.376   0.366   0.351   0.364   0.359   0.346   0.349   0.357   0.365   0.356   0.359   0.360   0.357   0.360   0.357   0.359   0.356   0.364   0.358   0.357   0.365   0.363   0.376   0.368   0.372   0.376   0.376   0.366   0.346   0.340   0.350   0.365   0.361   0.353   0.360   0.368   0.363   0.362   0.364   0.360   0.354   0.356   0.347   0.351   0.356   0.370   0.359   0.359   0.357   0.360   0.362   0.363   0.354   0.342   0.352   0.365   0.364   0.360   0.379   0.361   0.365   0.352   0.354   0.347   0.357   0.351   0.350   0.347   0.345   0.359   0.357   0.355   0.356   0.360   0.368   0.366   0.364   0.360   0.356   0.361   0.365   0.356   0.357   0.368   0.345   0.328   0.347
    66.10    0.349   0.355   0.356   0.364   0.361   0.354   0.348   0.340   0.339   0.334   0.347   0.354   0.361   0.356   0.356   0.360   0.353   0.354   0.350   0.338   0.336   0.346   0.333   0.340   0.340   0.339   0.340   0.356   0.354   0.349   0.356   0.364   0.359   0.349   0.356   0.346   0.361   0.370   0.370   0.371   0.359   0.360   0.366   0.360   0.362   0.365   0.381   0.373   0.382   0.367   0.359   0.345   0.358   0.358   0.349   0.366   0.371   0.361   0.360   0.361   0.359   0.356   0.353   0.353   0.349   0.356   0.358   0.367   0.372   0.366   0.364   0.354   0.357   0.372   0.377   0.363   0.361   0.364   0.362   0.359   0.372   0.371   0.368   0.375   0.372   0.354   0.345   0.361   0.366   0.362   0.357   0.345   0.339   0.343   0.355   0.351   0.346   0.362   0.359   0.353   0.361   0.365   0.363   0.367   0.376   0.367   0.373   0.358   0.354   0.363   0.368   0.352   0.367   0.357   0.366   0.367   0.355   0.357   0.362   0.360   0.354   0.350   0.353   0.359   0.358   0.360   0.364   0.356   0.365   0.370   0.376   0.365   0.366   0.354   0.355   0.356   0.344   0.352   0.351   0.356   0.348   0.361   0.354   0.360   0.360   0.358   0.352   0.347   0.356   0.357   0.369   0.362   0.357   0.357   0.357   0.358   0.363   0.359   0.341   0.341   0.350   0.359   0.365   0.353   0.366   0.368   0.357   0.365   0.345   0.349   0.354   0.361   0.345   0.343   0.348   0.346   0.346   0.353   0.351   0.352   0.351   0.365   0.364   0.360   0.352   0.355   0.348   0.356   0.356   0.359   0.335   0.338   0.332
    56.80    0.345   0.352   0.349   0.361   0.360   0.361   0.346   0.354   0.345   0.345   0.346   0.343   0.351   0.350   0.334   0.346   0.350   0.356   0.341   0.334   0.336   0.354   0.342   0.328   0.334   0.350   0.340   0.336   0.352   0.354   0.355   0.356   0.355   0.350   0.347   0.349   0.360   0.362   0.378   0.374   0.360   0.349   0.366   0.356   0.359   0.367   0.372   0.374   0.366   0.365   0.356   0.339   0.346   0.354   0.350   0.357   0.360   0.353   0.364   0.373   0.352   0.345   0.345   0.349   0.351   0.357   0.366   0.358   0.364   0.356   0.355   0.357   0.351   0.353   0.372   0.355   0.356   0.364   0.367   0.369   0.367   0.363   0.371   0.380   0.367   0.368   0.365   0.368   0.359   0.357   0.368   0.353   0.351   0.349   0.361   0.366   0.372   0.360   0.353   0.359   0.355   0.350   0.355   0.362   0.380   0.380   0.375   0.367   0.342   0.362   0.351   0.359   0.371   0.375   0.384   0.363   0.368   0.346   0.355   0.363   0.353   0.343   0.358   0.363   0.354   0.360   0.354   0.357   0.361   0.370   0.371   0.365   0.362   0.359   0.359   0.358   0.355   0.351   0.361   0.354   0.356   0.352   0.358   0.364   0.362   0.362   0.356   0.357   0.349   0.349   0.356   0.358   0.358   0.362   0.360   0.362   0.359   0.364   0.356   0.344   0.349   0.357   0.355   0.358   0.356   0.368   0.360   0.352   0.341   0.345   0.357   0.358   0.354   0.347   0.345   0.345   0.358   0.345   0.356   0.360   0.362   0.357   0.360   0.368   0.355   0.336   0.335   0.348   0.338   0.349   0.343   0.332   0.348
    47.50    0.347   0.350   0.347   0.360   0.351   0.351   0.348   0.360   0.357   0.344   0.347   0.347   0.349   0.339   0.331   0.339   0.350   0.347   0.333   0.336   0.342   0.341   0.343   0.338   0.339   0.346   0.340   0.343   0.356   0.351   0.350   0.350   0.345   0.335   0.344   0.338   0.360   0.371   0.375   0.381   0.363   0.353   0.351   0.366   0.366   0.365   0.362   0.367   0.356   0.354   0.357   0.351   0.347   0.345   0.354   0.353   0.356   0.342   0.361   0.363   0.357   0.349   0.357   0.356   0.349   0.354   0.362   0.357   0.367   0.354   0.361   0.363   0.356   0.358   0.359   0.342   0.345   0.350   0.359   0.368   0.365   0.370   0.361   0.370   0.381   0.374   0.383   0.364   0.362   0.357   0.368   0.359   0.352   0.353   0.360   0.361   0.371   0.358   0.361   0.368   0.357   0.369   0.360   0.357   0.370   0.374   0.371   0.376   0.356   0.354   0.359   0.358   0.371   0.374   0.372   0.364   0.357   0.353   0.364   0.368   0.371   0.370   0.358   0.359   0.351   0.362   0.357   0.356   0.353   0.353   0.361   0.370   0.371   0.372   0.364   0.357   0.361   0.361   0.351   0.351   0.359   0.364   0.364   0.354   0.352   0.358   0.350   0.345   0.355   0.362   0.357   0.358   0.362   0.360   0.363   0.367   0.361   0.358   0.361   0.350   0.358   0.355   0.352   0.358   0.357   0.357   0.349   0.343   0.340   0.355   0.344   0.346   0.348   0.347   0.349   0.362   0.350   0.355   0.365   0.367   0.357   0.355   0.363   0.357   0.349   0.345   0.346   0.342   0.343   0.345   0.338   0.343   0.342
    38.20    0.348   0.350   0.348   0.333   0.351   0.346   0.357   0.356   0.353   0.343   0.342   0.341   0.347   0.333   0.334   0.344   0.353   0.332   0.340   0.345   0.358   0.353   0.331   0.333   0.354   0.344   0.349   0.349   0.353   0.349   0.333   0.338   0.351   0.336   0.331   0.340   0.346   0.357   0.361   0.374   0.361   0.349   0.352   0.341   0.350   0.351   0.355   0.346   0.355   0.347   0.344   0.343   0.339   0.346   0.357   0.364   0.362   0.355   0.372   0.360   0.342   0.342   0.351   0.355   0.361   0.362   0.371   0.376   0.378   0.366   0.356   0.343   0.355   0.358   0.353   0.343   0.346   0.350   0.359   0.361   0.357   0.363   0.351   0.368   0.376   0.368   0.374   0.366   0.376   0.370   0.356   0.353   0.352   0.355   0.357   0.355   0.362   0.374   0.360   0.354   0.362   0.359   0.363   0.359   0.366   0.378   0.373   0.377   0.366   0.351   0.358   0.370   0.367   0.374   0.365   0.365   0.362   0.353   0.350   0.354   0.366   0.365   0.363   0.370   0.363   0.357   0.362   0.352   0.362   0.349   0.357   0.370   0.363   0.357   0.352   0.362   0.368   0.359   0.359   0.347   0.350   0.372   0.365   0.360   0.351   0.347   0.359   0.361   0.348   0.350   0.351   0.357   0.356   0.355   0.358   0.360   0.363   0.364   0.358   0.355   0.357   0.365   0.365   0.349   0.356   0.353   0.342   0.335   0.337   0.342   0.348   0.352   0.340   0.346   0.350   0.348   0.359   0.358   0.360   0.363   0.368   0.359   0.364   0.368   0.347   0.351   0.347   0.342   0.340   0.348   0.354   0.342   0.340
    28.90    0.357   0.361   0.338   0.339   0.338   0.340   0.345   0.356   0.355   0.343   0.343   0.341   0.336   0.334   0.329   0.334   0.350   0.358   0.361   0.356   0.346   0.346   0.333   0.337   0.333   0.353   0.347   0.346   0.354   0.345   0.352   0.338   0.333   0.342   0.341   0.344   0.334   0.348   0.349   0.373   0.367   0.353   0.353   0.344   0.344   0.337   0.350   0.360   0.347   0.356   0.349   0.338   0.345   0.342   0.354   0.364   0.367   0.348   0.363   0.354   0.358   0.348   0.351   0.337   0.347   0.369   0.376   0.364   0.368   0.366   0.358   0.358   0.351   0.344   0.351   0.356   0.352   0.352   0.350   0.360   0.354   0.356   0.358   0.364   0.363   0.367   0.362   0.360   0.359   0.368   0.352   0.356   0.364   0.370   0.369   0.369   0.372   0.365   0.365   0.352   0.356   0.369   0.364   0.367   0.375   0.381   0.386   0.379   0.356   0.361   0.356   0.371   0.368   0.374   0.368   0.361   0.360   0.351   0.352   0.361   0.365   0.368   0.363   0.363   0.363   0.356   0.352   0.363   0.360   0.353   0.351   0.367   0.355   0.365   0.366   0.364   0.371   0.369   0.350   0.351   0.354   0.366   0.364   0.361   0.368   0.365   0.346   0.349   0.345   0.361   0.361   0.369   0.360   0.358   0.355   0.357   0.364   0.358   0.358   0.352   0.363   0.363   0.363   0.351   0.333   0.348   0.343   0.342   0.342   0.340   0.362   0.362   0.360   0.351   0.357   0.354   0.352   0.363   0.352   0.359   0.358   0.355   0.360   0.358   0.346   0.357   0.347   0.337   0.338   0.347   0.355   0.345   0.338
    19.60    0.355   0.346   0.347   0.346   0.343   0.350   0.359   0.357   0.350   0.340   0.345   0.329   0.336   0.332   0.339   0.345   0.345   0.346   0.358   0.360   0.352   0.344   0.334   0.343   0.351   0.357   0.348   0.360   0.360   0.354   0.341   0.343   0.343   0.352   0.350   0.340   0.340   0.349   0.356   0.372   0.377   0.366   0.341   0.352   0.355   0.348   0.344   0.347   0.345   0.366   0.342   0.341   0.347   0.348   0.354   0.354   0.357   0.357   0.366   0.364   0.347   0.349   0.341   0.343   0.353   0.357   0.360   0.369   0.357   0.362   0.370   0.366   0.368   0.356   0.369   0.366   0.360   0.357   0.349   0.345   0.347   0.352   0.356   0.359   0.347   0.351   0.353   0.354   0.362   0.368   0.357   0.352   0.366   0.369   0.358   0.369   0.358   0.346   0.365   0.355   0.353   0.370   0.360   0.362   0.369   0.368   0.388   0.393   0.369   0.373   0.366   0.373   0.376   0.377   0.370   0.362   0.357   0.348   0.347   0.368   0.371   0.365   0.358   0.353   0.359   0.358   0.368   0.366   0.361   0.363   0.348   0.365   0.367   0.358   0.358   0.367   0.364   0.363   0.352   0.351   0.361   0.360   0.353   0.370   0.366   0.367   0.361   0.349   0.360   0.350   0.366   0.371   0.364   0.359   0.356   0.370   0.363   0.356   0.354   0.371   0.353   0.369   0.357   0.342   0.341   0.337   0.339   0.348   0.328   0.333   0.346   0.352   0.349   0.350   0.346   0.347   0.357   0.354   0.349   0.372   0.367   0.354   0.360   0.356   0.354   0.363   0.350   0.347   0.339   0.339   0.348   0.337   0.350
    10.30    0.354   0.366   0.357   0.358   0.346   0.348   0.354   0.355   0.347   0.326   0.339   0.336   0.336   0.337   0.332   0.350   0.349   0.348   0.342   0.351   0.344   0.362   0.349   0.357   0.350   0.355   0.352   0.358   0.356   0.358   0.361   0.354   0.345   0.352   0.346   0.346   0.357   0.354   0.360   0.365   0.366   0.352   0.344   0.347   0.345   0.345   0.358   0.349   0.352   0.347   0.339   0.346   0.336   0.352   0.363   0.355   0.360   0.355   0.359   0.366   0.339   0.343   0.334   0.341   0.341   0.344   0.357   0.358   0.354   0.366   0.372   0.378   0.372   0.367   0.366   0.370   0.358   0.357   0.355   0.348   0.344   0.354   0.360   0.357   0.350   0.349   0.343   0.360   0.357   0.359   0.358   0.358   0.358   0.358   0.357   0.356   0.357   0.333   0.345   0.344   0.360   0.363   0.356   0.364   0.358   0.376   0.396   0.389   0.379   0.370   0.366   0.369   0.363   0.360   0.363   0.365   0.354   0.359   0.357   0.360   0.375   0.369   0.363   0.350   0.353   0.373   0.359   0.370   0.358   0.354   0.364   0.360   0.351   0.356   0.351   0.353   0.351   0.351   0.339   0.348   0.349   0.358   0.349   0.363   0.355   0.372   0.364   0.356   0.354   0.349   0.365   0.369   0.367   0.363   0.361   0.372   0.359   0.344   0.347   0.363   0.371   0.357   0.356   0.347   0.339   0.337   0.348   0.353   0.335   0.339   0.337   0.337   0.349   0.357   0.350   0.351   0.363   0.359   0.353   0.355   0.362   0.356   0.362   0.352   0.359   0.361   0.361   0.348   0.344   0.344   0.345   0.348   0.350
     1.00    0.356   0.356   0.351   0.351   0.345   0.342   0.351   0.340   0.344   0.353   0.343   0.347   0.345   0.349   0.340   0.341   0.351   0.344   0.344   0.356   0.355   0.342   0.351   0.355   0.358   0.355   0.356   0.359   0.362   0.356   0.358   0.354   0.353   0.361   0.353   0.348   0.357   0.364   0.361   0.369   0.348   0.344   0.341   0.344   0.344   0.346   0.342   0.347   0.348   0.347   0.346   0.346   0.353   0.353   0.353   0.354   0.353   0.357   0.358   0.368   0.358   0.349   0.346   0.345   0.348   0.347   0.350   0.350   0.350   0.360   0.373   0.365   0.375   0.370   0.369   0.358   0.355   0.354   0.358   0.363   0.343   0.352   0.350   0.357   0.364   0.366   0.347   0.352   0.357   0.343   0.354   0.356   0.352   0.351   0.349   0.354   0.349   0.362   0.351   0.340   0.356   0.356   0.363   0.374   0.373   0.375   0.374   0.378   0.373   0.376   0.370   0.371   0.363   0.359   0.363   0.353   0.367   0.364   0.363   0.372   0.370   0.369   0.360   0.350   0.359   0.364   0.368   0.361   0.368   0.356   0.364   0.359   0.345   0.350   0.345   0.340   0.334   0.347   0.341   0.344   0.340   0.352   0.363   0.359   0.352   0.359   0.364   0.370   0.368   0.364   0.360   0.371   0.372   0.371   0.373   0.369   0.356   0.358   0.357   0.355   0.361   0.355   0.350   0.350   0.348   0.338   0.332   0.335   0.346   0.341   0.345   0.346   0.337   0.341   0.351   0.359   0.358   0.354   0.350   0.357   0.359   0.367   0.373   0.360   0.347   0.359   0.344   0.356   0.342   0.347   0.352   0.342   0.342

   Mean standard deviation across all grid points:
      u component:    0.689 m/s
      v component:    0.584 m/s
      w component:    0.355 m/s


U-component (X) statistics from the interpolated hub point:

   Mean =   9.7063 m/s
   TI   =   6.6254 %


Processing complete.  2.10320E+05 CPU seconds used.
