
This summary file was generated by TurbSim (from OpenFAST-v3.5.3) on 19-Apr-2025 at 23:09:31.


Runtime Options:

 376932526  Random seed #1
    RANLUX  Type of random number generator
         F  Output binary HH turbulence parameters?
         F  Output formatted turbulence parameters?
         F  Output AeroDyn HH files?
         T  Output AeroDyn FF files?
         F  Output BLADED FF files?
         F  Output tower data?
         F  Output HAWC FF files?
         F  Output formatted FF files?
         T  Output coherent turbulence time step file?
 0 -  NONE  IEC turbulence models scaled to exact specified standard deviation


Turbine/Model Specifications:

        39  Vertical grid-point matrix dimension
       193  Horizontal grid-point matrix dimension
     0.250  Time step [seconds]
   900.000  Analysis time [seconds]
   900.000  Usable output time [seconds]
   177.700  Hub height [m]
   353.400  Grid height [m]
  1785.600  Grid width [m]
     0.000  Vertical flow angle [degrees]
     0.000  Horizontal flow angle [degrees]


Meteorological Boundary Conditions:

    IECKAI  IEC Kaimal spectral model
         1  IEC standard: IEC 61400-1 Ed. 3: 2005
     5.000  Percent turbulence intensity, IEC 61400-1 Ed. 3: 2005
       NTM  IEC Normal Turbulence Model
       N/A  IEC Extreme Turbulence Model (ETM) "c" parameter [m/s]
       USR  Wind profile type
    90.000  Reference height [m]
       N/A  Reference wind speed [m/s]
       N/A  Jet height [m]
       N/A  Power law exponent
     0.030  Surface roughness length [m]


Non-IEC Meteorological Boundary Conditions:

       N/A  Site latitude [degrees]
       N/A  Gradient Richardson number
       N/A  Friction or shear velocity [m/s]
       N/A  Mixing layer depth [m]
       N/A  Mean hub u'w' Reynolds stress
       N/A  Mean hub u'v' Reynolds stress
       N/A  Mean hub v'w' Reynolds stress


Spatial Coherence Models:

       IEC  u-component coherence model
       IEC  v-component coherence model
       IEC  w-component coherence model
(   12.000, 0.353E-03)  u-component coherence parameters
(   12.000, 0.353E-03)  v-component coherence parameters
(   12.000, 0.353E-03)  w-component coherence parameters
       N/A  Coherence exponent


User-Defined Profiles:

  Height   Wind Speed   Horizontal Angle
   (m)        (m/s)          (deg)      
  ------   ----------   ----------------
  353.40      10.00         318.19
  334.80      10.00         321.14
  316.20      10.00         324.10
  297.60      10.00         327.05
  279.00      10.00         330.00
  260.40      10.00         332.95
  241.80      10.00         335.90
  223.20      10.00         338.86
  204.60      10.00         341.81
  186.00      10.00         344.76
  167.40      10.00         347.71
  148.80      10.00         350.67
  130.20      10.00         353.62
  111.60      10.00         356.57
   93.00      10.00         359.52
   74.40      10.00           2.48
   55.80      10.00           5.43
   37.20      10.00           8.38
   18.60      10.00          11.33
    0.00      10.00          14.29


You have requested that the following file(s) be generated:

   /kfs3/scratch/agupta/Projects/RL_Incubator/FinalRuns_Veer/Seed4/./FFSim_Seed4/Cond00_v10.0_PL0.12_TI5.0/Seed_6/Low.bts (AeroDyn/TurbSim full-field wind file)


Turbulence Simulation Scaling Parameter Summary:

   Turbulence model used                            =  IEC Kaimal
   Turbulence characteristic                        =  User-specified
   IEC standard                                     =  IEC 61400-1 Ed. 3: 2005
   Mean wind speed at hub height                    =   10.000 m/s
   Characteristic value of standard deviation       =    0.500 m/s
   Turbulence scale                                 =   42.000 m
   u-component integral scale                       =  340.200 m
   Coherency scale                                  =  340.200 m
   Characteristic value of hub turbulence intensity =    5.000%
   Gradient Richardson number                       =    0.000

   Wind profile type                                =  Linear interpolation of user-defined profile
   Equivalent power law exponent (upper rotor disk) =    0.000
   Mean shear across rotor disk                     =    0.000 (m/s)/m
   Assumed rotor diameter                           =  353.400 m
   Surface roughness length                         =    0.030 m

   Nyquist frequency of turbulent wind field        =    2.000 Hz

   Number of time steps in the FFT                  =     3600
   Number of time steps output                      =     3600
   Number of points simulated                       =     7527


Mean Flow Angles:

   Vertical   =   0.0 degrees
   Horizontal =   0.0 degrees

Mean Wind Speed Profile:

   Height    Wind Speed   Horizontal Angle  Vertical Angle  U-comp (X)   V-comp (Y)   W-comp (Z)
     (m)        (m/s)         (degrees)       (degrees)       (m/s)        (m/s)        (m/s)   
   ------    ----------   ----------------  --------------  ----------   ----------   ----------
    354.4       10.00          318.19            0.00          7.45        -6.67         0.00
    345.1       10.00          319.51            0.00          7.60        -6.49         0.00
    335.8       10.00          320.98            0.00          7.77        -6.30         0.00
    326.5       10.00          322.46            0.00          7.93        -6.09         0.00
    317.2       10.00          323.94            0.00          8.08        -5.89         0.00
    307.9       10.00          325.41            0.00          8.23        -5.68         0.00
    298.6       10.00          326.89            0.00          8.38        -5.46         0.00
    289.3       10.00          328.37            0.00          8.51        -5.25         0.00
    280.0       10.00          329.84            0.00          8.65        -5.02         0.00
    270.7       10.00          331.32            0.00          8.77        -4.80         0.00
    261.4       10.00          332.79            0.00          8.89        -4.57         0.00
    252.1       10.00          334.27            0.00          9.01        -4.34         0.00
    242.8       10.00          335.75            0.00          9.12        -4.11         0.00
    233.5       10.00          337.22            0.00          9.22        -3.87         0.00
    224.2       10.00          338.70            0.00          9.32        -3.63         0.00
    214.9       10.00          340.17            0.00          9.41        -3.39         0.00
    205.6       10.00          341.65            0.00          9.49        -3.15         0.00
    196.3       10.00          343.13            0.00          9.57        -2.90         0.00
    187.0       10.00          344.60            0.00          9.64        -2.66         0.00
    177.7       10.00          346.08            0.00          9.71        -2.41         0.00
    168.4       10.00          347.56            0.00          9.77        -2.15         0.00
    159.1       10.00          349.03            0.00          9.82        -1.90         0.00
    149.8       10.00          350.51            0.00          9.86        -1.65         0.00
    140.5       10.00          351.98            0.00          9.90        -1.39         0.00
    131.2       10.00          353.46            0.00          9.93        -1.14         0.00
    121.9       10.00          354.94            0.00          9.96        -0.88         0.00
    112.6       10.00          356.41            0.00          9.98        -0.63         0.00
    103.3       10.00          357.89            0.00          9.99        -0.37         0.00
     94.0       10.00          359.37            0.00         10.00        -0.11         0.00
     84.7       10.00          360.84            0.00         10.00         0.15         0.00
     75.4       10.00          362.32            0.00          9.99         0.40         0.00
     66.1       10.00            3.79            0.00          9.98         0.66         0.00
     56.8       10.00            5.27            0.00          9.96         0.92         0.00
     47.5       10.00            6.75            0.00          9.93         1.17         0.00
     38.2       10.00            8.22            0.00          9.90         1.43         0.00
     28.9       10.00            9.70            0.00          9.86         1.68         0.00
     19.6       10.00           11.17            0.00          9.81         1.94         0.00
     10.3       10.00           12.65            0.00          9.76         2.19         0.00
      1.0       10.00           14.13            0.00          9.70         2.44         0.00


Harvested Random Seeds after Generation of the Random Numbers:

    377667225 K 1
            0 K 2


Hub-Height Simulated Turbulence Statistical Summary:

   Type of Wind        Min (m/s)   Mean (m/s)    Max (m/s)  Sigma (m/s)       TI (%)
   ----------------    ---------   ----------    ---------  -----------       ------
   Longitudinal (u)         8.40        10.00        11.61        0.521        5.207
   Lateral (v)             -1.34         0.00         1.15        0.412        4.119
   Vertical (w)            -0.84         0.00         0.78        0.235        2.346
   U component              8.10         9.71        11.32        0.520        5.360
   V component             -3.76        -2.41        -1.26        0.413        4.250
   W component             -0.84         0.00         0.78        0.235        2.417
   Horizontal (U&V)         8.40        10.01        11.61        0.521        5.210
   Total                    8.40        10.01        11.62        0.521        5.209

                       Min Reynolds     Mean Reynolds    Max Reynolds    Correlation
   Product             Stress (m/s)^2   Stress (m/s)^2   Stress (m/s)^2  Coefficient
   ----------------    --------------   --------------   --------------  -----------
   u'w'                     -0.702             0.002             0.691         0.013
   u'v'                     -0.945             0.011             0.979         0.053
   v'w'                     -0.661            -0.001             0.412        -0.013


   Friction Velocity (Ustar)  =      0.039 m/s
   Maximum Instantaneous TKE  =      1.366 (m/s)^2
   Maximum Instantaneous CTKE =      0.541 (m/s)^2


Grid Point Variance Summary:

   Y-coord -892.80 -883.50 -874.20 -864.90 -855.60 -846.30 -837.00 -827.70 -818.40 -809.10 -799.80 -790.50 -781.20 -771.90 -762.60 -753.30 -744.00 -734.70 -725.40 -716.10 -706.80 -697.50 -688.20 -678.90 -669.60 -660.30 -651.00 -641.70 -632.40 -623.10 -613.80 -604.50 -595.20 -585.90 -576.60 -567.30 -558.00 -548.70 -539.40 -530.10 -520.80 -511.50 -502.20 -492.90 -483.60 -474.30 -465.00 -455.70 -446.40 -437.10 -427.80 -418.50 -409.20 -399.90 -390.60 -381.30 -372.00 -362.70 -353.40 -344.10 -334.80 -325.50 -316.20 -306.90 -297.60 -288.30 -279.00 -269.70 -260.40 -251.10 -241.80 -232.50 -223.20 -213.90 -204.60 -195.30 -186.00 -176.70 -167.40 -158.10 -148.80 -139.50 -130.20 -120.90 -111.60 -102.30  -93.00  -83.70  -74.40  -65.10  -55.80  -46.50  -37.20  -27.90  -18.60   -9.30    0.00    9.30   18.60   27.90   37.20   46.50   55.80   65.10   74.40   83.70   93.00  102.30  111.60  120.90  130.20  139.50  148.80  158.10  167.40  176.70  186.00  195.30  204.60  213.90  223.20  232.50  241.80  251.10  260.40  269.70  279.00  288.30  297.60  306.90  316.20  325.50  334.80  344.10  353.40  362.70  372.00  381.30  390.60  399.90  409.20  418.50  427.80  437.10  446.40  455.70  465.00  474.30  483.60  492.90  502.20  511.50  520.80  530.10  539.40  548.70  558.00  567.30  576.60  585.90  595.20  604.50  613.80  623.10  632.40  641.70  651.00  660.30  669.60  678.90  688.20  697.50  706.80  716.10  725.40  734.70  744.00  753.30  762.60  771.90  781.20  790.50  799.80  809.10  818.40  827.70  837.00  846.30  855.60  864.90  874.20  883.50  892.80

   Height   Standard deviation at grid points for the u component:
   354.40    0.486   0.437   0.483   0.467   0.504   0.544   0.512   0.530   0.516   0.519   0.499   0.487   0.440   0.467   0.461   0.481   0.426   0.441   0.415   0.411   0.397   0.401   0.409   0.411   0.421   0.429   0.437   0.425   0.440   0.479   0.483   0.462   0.455   0.471   0.494   0.485   0.444   0.469   0.443   0.404   0.387   0.413   0.424   0.412   0.420   0.473   0.471   0.519   0.503   0.530   0.541   0.548   0.559   0.566   0.562   0.582   0.576   0.515   0.512   0.497   0.499   0.478   0.487   0.512   0.512   0.551   0.527   0.549   0.554   0.552   0.524   0.492   0.509   0.515   0.510   0.484   0.503   0.528   0.552   0.560   0.515   0.479   0.483   0.483   0.488   0.499   0.490   0.524   0.525   0.562   0.512   0.508   0.517   0.487   0.485   0.485   0.446   0.455   0.477   0.508   0.517   0.523   0.531   0.514   0.517   0.477   0.477   0.464   0.483   0.499   0.502   0.495   0.465   0.475   0.489   0.500   0.488   0.478   0.457   0.470   0.441   0.439   0.442   0.422   0.429   0.457   0.450   0.443   0.457   0.452   0.433   0.401   0.420   0.434   0.421   0.455   0.450   0.508   0.532   0.481   0.486   0.479   0.498   0.486   0.491   0.463   0.456   0.521   0.511   0.517   0.490   0.503   0.511   0.480   0.434   0.446   0.417   0.384   0.404   0.420   0.418   0.429   0.446   0.453   0.457   0.466   0.498   0.461   0.455   0.458   0.449   0.445   0.429   0.408   0.434   0.419   0.395   0.406   0.407   0.433   0.483   0.523   0.485   0.488   0.496   0.498   0.492   0.530   0.556   0.524   0.532   0.511   0.481
   345.10    0.523   0.492   0.470   0.512   0.539   0.517   0.509   0.524   0.521   0.494   0.469   0.477   0.454   0.455   0.443   0.487   0.446   0.414   0.403   0.440   0.418   0.414   0.382   0.410   0.416   0.449   0.449   0.431   0.430   0.436   0.452   0.465   0.491   0.462   0.490   0.481   0.453   0.424   0.416   0.398   0.398   0.408   0.426   0.475   0.479   0.498   0.515   0.516   0.526   0.548   0.484   0.527   0.564   0.545   0.549   0.545   0.563   0.500   0.496   0.515   0.502   0.525   0.515   0.496   0.522   0.544   0.550   0.541   0.566   0.554   0.547   0.525   0.512   0.526   0.545   0.549   0.541   0.542   0.561   0.573   0.485   0.491   0.510   0.532   0.527   0.542   0.531   0.523   0.551   0.544   0.538   0.535   0.520   0.496   0.480   0.483   0.499   0.496   0.501   0.521   0.550   0.533   0.512   0.525   0.534   0.489   0.485   0.466   0.484   0.513   0.511   0.494   0.462   0.495   0.496   0.501   0.489   0.493   0.469   0.467   0.449   0.439   0.444   0.413   0.435   0.437   0.473   0.441   0.469   0.452   0.451   0.439   0.468   0.491   0.456   0.457   0.498   0.487   0.464   0.480   0.480   0.493   0.481   0.468   0.490   0.483   0.470   0.518   0.529   0.510   0.489   0.485   0.523   0.481   0.465   0.447   0.414   0.391   0.405   0.430   0.427   0.468   0.468   0.460   0.459   0.449   0.487   0.460   0.469   0.469   0.439   0.429   0.433   0.425   0.408   0.411   0.406   0.382   0.408   0.457   0.494   0.527   0.524   0.519   0.512   0.473   0.537   0.532   0.574   0.517   0.520   0.533   0.509
   335.80    0.490   0.494   0.448   0.491   0.526   0.515   0.521   0.519   0.509   0.449   0.486   0.465   0.473   0.485   0.468   0.487   0.475   0.423   0.393   0.407   0.413   0.418   0.391   0.392   0.434   0.434   0.461   0.402   0.416   0.411   0.439   0.456   0.469   0.464   0.475   0.467   0.443   0.433   0.426   0.406   0.379   0.430   0.424   0.464   0.503   0.518   0.522   0.555   0.526   0.526   0.515   0.490   0.536   0.531   0.520   0.539   0.533   0.495   0.485   0.505   0.490   0.515   0.500   0.480   0.532   0.540   0.543   0.547   0.549   0.535   0.526   0.507   0.540   0.561   0.548   0.557   0.561   0.560   0.576   0.562   0.512   0.518   0.507   0.503   0.548   0.576   0.577   0.578   0.605   0.579   0.509   0.517   0.510   0.525   0.503   0.503   0.517   0.535   0.514   0.538   0.513   0.505   0.520   0.534   0.536   0.517   0.505   0.500   0.470   0.506   0.496   0.520   0.482   0.461   0.483   0.507   0.498   0.500   0.485   0.476   0.498   0.465   0.483   0.455   0.469   0.476   0.485   0.478   0.488   0.449   0.447   0.458   0.473   0.443   0.475   0.504   0.480   0.502   0.496   0.479   0.468   0.463   0.458   0.454   0.492   0.474   0.495   0.495   0.502   0.500   0.504   0.487   0.517   0.489   0.471   0.447   0.414   0.397   0.427   0.447   0.464   0.464   0.466   0.455   0.457   0.464   0.463   0.472   0.482   0.513   0.469   0.476   0.427   0.446   0.446   0.389   0.402   0.386   0.437   0.433   0.504   0.522   0.534   0.548   0.527   0.541   0.559   0.581   0.570   0.515   0.488   0.521   0.499
   326.50    0.478   0.488   0.500   0.490   0.505   0.524   0.496   0.525   0.504   0.496   0.495   0.472   0.459   0.491   0.505   0.492   0.460   0.450   0.413   0.389   0.396   0.415   0.385   0.396   0.429   0.422   0.419   0.404   0.404   0.441   0.453   0.436   0.452   0.467   0.449   0.450   0.463   0.434   0.443   0.383   0.400   0.387   0.436   0.478   0.513   0.529   0.545   0.515   0.522   0.520   0.541   0.522   0.530   0.570   0.520   0.518   0.500   0.507   0.509   0.483   0.508   0.513   0.522   0.496   0.549   0.540   0.553   0.527   0.521   0.513   0.516   0.526   0.559   0.550   0.537   0.524   0.567   0.583   0.575   0.536   0.535   0.541   0.538   0.542   0.567   0.580   0.574   0.604   0.600   0.577   0.574   0.529   0.530   0.486   0.506   0.485   0.495   0.535   0.537   0.509   0.542   0.480   0.499   0.531   0.540   0.506   0.499   0.484   0.498   0.487   0.482   0.490   0.504   0.493   0.497   0.509   0.512   0.537   0.511   0.511   0.510   0.517   0.513   0.482   0.490   0.479   0.474   0.480   0.501   0.486   0.473   0.481   0.488   0.471   0.483   0.506   0.520   0.518   0.488   0.488   0.459   0.438   0.459   0.469   0.482   0.480   0.464   0.454   0.496   0.493   0.476   0.497   0.491   0.457   0.481   0.446   0.445   0.428   0.431   0.459   0.462   0.485   0.462   0.413   0.431   0.424   0.432   0.450   0.482   0.467   0.452   0.444   0.469   0.469   0.447   0.414   0.410   0.418   0.438   0.472   0.518   0.521   0.551   0.553   0.539   0.551   0.567   0.566   0.551   0.529   0.553   0.546   0.506
   317.20    0.488   0.483   0.465   0.450   0.462   0.496   0.487   0.480   0.493   0.513   0.518   0.468   0.464   0.503   0.476   0.474   0.470   0.469   0.430   0.398   0.399   0.427   0.381   0.389   0.428   0.461   0.437   0.430   0.389   0.421   0.417   0.446   0.453   0.443   0.436   0.463   0.468   0.461   0.403   0.384   0.418   0.412   0.426   0.461   0.479   0.514   0.544   0.541   0.540   0.535   0.575   0.545   0.540   0.549   0.511   0.534   0.505   0.491   0.526   0.514   0.502   0.488   0.511   0.517   0.522   0.554   0.547   0.537   0.539   0.543   0.494   0.530   0.559   0.559   0.545   0.554   0.553   0.566   0.526   0.506   0.523   0.535   0.531   0.538   0.549   0.550   0.562   0.595   0.606   0.569   0.537   0.529   0.528   0.490   0.477   0.471   0.509   0.525   0.522   0.527   0.545   0.510   0.501   0.512   0.518   0.511   0.489   0.474   0.493   0.510   0.478   0.471   0.476   0.503   0.524   0.503   0.519   0.500   0.491   0.505   0.505   0.501   0.497   0.485   0.500   0.505   0.511   0.522   0.517   0.515   0.521   0.507   0.492   0.521   0.508   0.536   0.556   0.530   0.511   0.498   0.462   0.451   0.451   0.435   0.424   0.432   0.472   0.473   0.470   0.494   0.481   0.469   0.466   0.432   0.451   0.454   0.439   0.429   0.435   0.455   0.459   0.453   0.457   0.443   0.413   0.428   0.462   0.454   0.444   0.460   0.437   0.439   0.452   0.499   0.447   0.430   0.431   0.445   0.450   0.501   0.509   0.542   0.538   0.556   0.541   0.513   0.542   0.565   0.570   0.517   0.551   0.523   0.506
   307.90    0.466   0.474   0.496   0.477   0.437   0.458   0.479   0.492   0.509   0.525   0.511   0.514   0.467   0.506   0.510   0.467   0.491   0.472   0.432   0.414   0.410   0.398   0.399   0.416   0.421   0.436   0.418   0.415   0.385   0.392   0.425   0.423   0.433   0.456   0.434   0.418   0.454   0.462   0.442   0.401   0.423   0.420   0.411   0.438   0.467   0.498   0.476   0.547   0.546   0.569   0.531   0.530   0.530   0.559   0.513   0.530   0.484   0.517   0.480   0.447   0.505   0.517   0.498   0.533   0.516   0.532   0.544   0.529   0.504   0.509   0.503   0.514   0.515   0.523   0.542   0.529   0.507   0.539   0.536   0.509   0.505   0.548   0.552   0.575   0.552   0.542   0.533   0.567   0.562   0.580   0.554   0.555   0.510   0.495   0.464   0.504   0.511   0.512   0.488   0.472   0.483   0.474   0.458   0.475   0.532   0.508   0.486   0.447   0.503   0.515   0.473   0.450   0.470   0.505   0.494   0.510   0.516   0.510   0.498   0.507   0.499   0.503   0.489   0.491   0.505   0.532   0.531   0.539   0.522   0.531   0.543   0.584   0.567   0.555   0.546   0.522   0.542   0.556   0.548   0.483   0.451   0.464   0.435   0.409   0.436   0.446   0.472   0.469   0.468   0.460   0.467   0.465   0.461   0.438   0.454   0.454   0.439   0.445   0.448   0.441   0.478   0.467   0.447   0.447   0.422   0.439   0.446   0.444   0.444   0.443   0.432   0.427   0.456   0.469   0.459   0.458   0.455   0.441   0.478   0.508   0.509   0.551   0.558   0.543   0.508   0.508   0.521   0.563   0.571   0.504   0.535   0.496   0.499
   298.60    0.481   0.493   0.466   0.446   0.459   0.507   0.518   0.482   0.494   0.523   0.530   0.502   0.516   0.486   0.517   0.504   0.494   0.469   0.467   0.408   0.408   0.400   0.392   0.410   0.415   0.398   0.415   0.402   0.373   0.413   0.426   0.401   0.447   0.435   0.430   0.458   0.462   0.465   0.451   0.432   0.423   0.428   0.423   0.432   0.443   0.465   0.501   0.534   0.536   0.556   0.520   0.530   0.501   0.520   0.526   0.518   0.526   0.504   0.500   0.490   0.515   0.498   0.484   0.483   0.523   0.514   0.495   0.520   0.501   0.519   0.530   0.518   0.497   0.500   0.507   0.514   0.522   0.534   0.559   0.525   0.520   0.534   0.553   0.562   0.520   0.517   0.524   0.564   0.559   0.543   0.551   0.531   0.548   0.510   0.493   0.485   0.499   0.521   0.463   0.454   0.464   0.458   0.484   0.485   0.467   0.471   0.467   0.495   0.487   0.476   0.474   0.470   0.492   0.497   0.493   0.501   0.523   0.494   0.487   0.481   0.436   0.462   0.495   0.515   0.517   0.527   0.545   0.547   0.566   0.594   0.579   0.611   0.603   0.572   0.552   0.544   0.573   0.563   0.557   0.499   0.444   0.437   0.412   0.412   0.391   0.430   0.467   0.474   0.459   0.495   0.471   0.472   0.461   0.433   0.430   0.422   0.424   0.434   0.467   0.464   0.491   0.455   0.481   0.489   0.444   0.453   0.463   0.472   0.468   0.449   0.446   0.468   0.436   0.465   0.448   0.430   0.479   0.427   0.471   0.499   0.511   0.520   0.506   0.514   0.504   0.518   0.521   0.579   0.556   0.539   0.510   0.498   0.492
   289.30    0.446   0.479   0.507   0.505   0.475   0.489   0.497   0.482   0.483   0.505   0.496   0.484   0.512   0.480   0.521   0.506   0.501   0.482   0.469   0.449   0.412   0.403   0.412   0.387   0.409   0.431   0.434   0.432   0.378   0.403   0.425   0.386   0.427   0.413   0.445   0.454   0.464   0.464   0.462   0.435   0.438   0.406   0.458   0.487   0.466   0.451   0.470   0.501   0.487   0.542   0.568   0.557   0.570   0.517   0.518   0.525   0.539   0.505   0.507   0.474   0.481   0.476   0.466   0.454   0.513   0.539   0.497   0.526   0.520   0.511   0.476   0.505   0.471   0.464   0.450   0.479   0.526   0.511   0.554   0.519   0.545   0.488   0.517   0.554   0.547   0.517   0.537   0.532   0.555   0.555   0.530   0.553   0.541   0.531   0.499   0.501   0.492   0.508   0.502   0.467   0.510   0.534   0.500   0.476   0.491   0.462   0.465   0.492   0.491   0.475   0.476   0.482   0.496   0.489   0.480   0.487   0.467   0.504   0.486   0.443   0.443   0.458   0.464   0.507   0.535   0.531   0.538   0.577   0.577   0.583   0.627   0.640   0.613   0.576   0.544   0.569   0.572   0.580   0.548   0.507   0.428   0.397   0.399   0.388   0.383   0.476   0.465   0.466   0.459   0.472   0.473   0.457   0.439   0.436   0.426   0.427   0.433   0.455   0.474   0.449   0.450   0.452   0.452   0.447   0.455   0.467   0.438   0.474   0.445   0.451   0.422   0.458   0.464   0.450   0.471   0.441   0.460   0.429   0.422   0.459   0.487   0.476   0.520   0.496   0.475   0.484   0.480   0.529   0.552   0.543   0.516   0.482   0.514
   280.00    0.488   0.488   0.517   0.522   0.509   0.508   0.469   0.466   0.452   0.457   0.494   0.501   0.472   0.477   0.506   0.534   0.520   0.466   0.443   0.444   0.428   0.414   0.408   0.393   0.421   0.408   0.415   0.437   0.397   0.419   0.420   0.404   0.392   0.432   0.415   0.429   0.418   0.438   0.408   0.415   0.416   0.434   0.452   0.468   0.485   0.442   0.466   0.470   0.452   0.507   0.537   0.584   0.544   0.532   0.519   0.500   0.487   0.519   0.492   0.478   0.477   0.464   0.467   0.505   0.535   0.538   0.540   0.521   0.538   0.532   0.503   0.508   0.454   0.430   0.449   0.488   0.521   0.498   0.491   0.491   0.493   0.476   0.493   0.505   0.499   0.531   0.548   0.537   0.536   0.526   0.536   0.543   0.502   0.501   0.506   0.496   0.456   0.476   0.469   0.451   0.484   0.495   0.493   0.495   0.496   0.470   0.437   0.471   0.480   0.480   0.485   0.484   0.466   0.502   0.518   0.471   0.478   0.470   0.455   0.455   0.450   0.470   0.469   0.507   0.508   0.540   0.517   0.574   0.591   0.595   0.619   0.600   0.617   0.580   0.560   0.570   0.570   0.549   0.521   0.494   0.470   0.412   0.399   0.414   0.448   0.459   0.474   0.456   0.438   0.474   0.468   0.490   0.476   0.476   0.422   0.401   0.444   0.466   0.454   0.441   0.429   0.459   0.441   0.434   0.463   0.469   0.459   0.476   0.441   0.418   0.431   0.436   0.435   0.451   0.468   0.477   0.449   0.464   0.447   0.471   0.482   0.511   0.525   0.520   0.494   0.501   0.506   0.525   0.576   0.544   0.495   0.498   0.504
   270.70    0.457   0.478   0.492   0.506   0.507   0.492   0.468   0.489   0.440   0.436   0.482   0.487   0.478   0.501   0.513   0.519   0.529   0.497   0.465   0.411   0.415   0.399   0.401   0.390   0.397   0.407   0.405   0.401   0.399   0.437   0.442   0.426   0.424   0.455   0.454   0.440   0.413   0.419   0.425   0.429   0.431   0.438   0.467   0.492   0.492   0.446   0.447   0.471   0.475   0.480   0.558   0.561   0.530   0.517   0.504   0.523   0.503   0.536   0.498   0.489   0.498   0.507   0.485   0.507   0.536   0.544   0.550   0.538   0.520   0.509   0.515   0.501   0.472   0.467   0.474   0.487   0.514   0.507   0.486   0.502   0.480   0.473   0.478   0.460   0.487   0.480   0.498   0.503   0.523   0.530   0.532   0.529   0.528   0.466   0.450   0.455   0.444   0.475   0.471   0.478   0.463   0.448   0.460   0.497   0.491   0.485   0.492   0.465   0.479   0.505   0.503   0.473   0.456   0.492   0.507   0.464   0.442   0.456   0.459   0.471   0.473   0.480   0.490   0.511   0.506   0.524   0.519   0.535   0.540   0.564   0.577   0.580   0.580   0.599   0.589   0.587   0.604   0.547   0.513   0.482   0.481   0.455   0.421   0.420   0.417   0.428   0.425   0.407   0.447   0.490   0.451   0.449   0.461   0.440   0.433   0.422   0.419   0.417   0.430   0.433   0.438   0.464   0.468   0.467   0.485   0.494   0.482   0.469   0.432   0.424   0.399   0.417   0.425   0.457   0.467   0.477   0.454   0.455   0.482   0.503   0.493   0.500   0.501   0.546   0.521   0.538   0.524   0.529   0.557   0.558   0.518   0.505   0.471
   261.40    0.445   0.456   0.467   0.489   0.488   0.476   0.472   0.463   0.444   0.451   0.491   0.478   0.492   0.501   0.531   0.519   0.509   0.504   0.454   0.426   0.424   0.409   0.442   0.414   0.389   0.401   0.413   0.421   0.414   0.425   0.442   0.452   0.420   0.460   0.457   0.447   0.420   0.401   0.429   0.411   0.416   0.445   0.476   0.497   0.490   0.469   0.467   0.487   0.502   0.483   0.524   0.537   0.500   0.514   0.513   0.544   0.548   0.528   0.505   0.529   0.538   0.495   0.521   0.515   0.541   0.527   0.524   0.507   0.515   0.548   0.544   0.495   0.447   0.452   0.484   0.493   0.498   0.492   0.476   0.463   0.479   0.472   0.482   0.486   0.496   0.450   0.472   0.492   0.538   0.561   0.531   0.525   0.517   0.471   0.417   0.450   0.431   0.450   0.480   0.483   0.486   0.464   0.508   0.529   0.500   0.470   0.497   0.432   0.480   0.513   0.495   0.490   0.484   0.494   0.512   0.469   0.440   0.463   0.476   0.484   0.489   0.498   0.518   0.520   0.520   0.542   0.555   0.541   0.533   0.559   0.560   0.566   0.554   0.540   0.562   0.576   0.573   0.569   0.502   0.476   0.482   0.446   0.440   0.422   0.420   0.422   0.397   0.405   0.437   0.436   0.430   0.457   0.423   0.439   0.414   0.410   0.414   0.408   0.417   0.433   0.443   0.467   0.477   0.469   0.464   0.462   0.449   0.439   0.424   0.424   0.393   0.402   0.418   0.460   0.455   0.455   0.481   0.454   0.474   0.496   0.480   0.474   0.497   0.516   0.522   0.498   0.504   0.515   0.523   0.530   0.542   0.504   0.471
   252.10    0.430   0.462   0.503   0.492   0.485   0.472   0.486   0.474   0.456   0.433   0.461   0.485   0.489   0.525   0.495   0.508   0.494   0.503   0.458   0.439   0.422   0.426   0.456   0.408   0.434   0.444   0.432   0.436   0.422   0.446   0.451   0.453   0.455   0.456   0.440   0.465   0.460   0.407   0.400   0.389   0.402   0.430   0.479   0.480   0.487   0.469   0.488   0.499   0.474   0.494   0.505   0.533   0.512   0.517   0.508   0.517   0.546   0.509   0.541   0.539   0.534   0.502   0.501   0.525   0.552   0.546   0.526   0.527   0.523   0.554   0.554   0.490   0.456   0.449   0.479   0.499   0.456   0.447   0.456   0.468   0.471   0.501   0.511   0.489   0.498   0.478   0.505   0.485   0.506   0.503   0.489   0.488   0.479   0.471   0.445   0.436   0.485   0.457   0.478   0.475   0.486   0.465   0.506   0.522   0.498   0.479   0.480   0.442   0.501   0.508   0.511   0.479   0.476   0.497   0.517   0.469   0.448   0.470   0.454   0.472   0.481   0.506   0.518   0.510   0.511   0.518   0.503   0.501   0.528   0.538   0.536   0.539   0.524   0.517   0.496   0.538   0.529   0.529   0.533   0.481   0.463   0.465   0.433   0.427   0.401   0.450   0.443   0.422   0.416   0.409   0.418   0.421   0.396   0.402   0.399   0.390   0.398   0.398   0.402   0.430   0.460   0.495   0.478   0.499   0.481   0.453   0.418   0.439   0.423   0.421   0.434   0.428   0.403   0.450   0.459   0.459   0.488   0.443   0.457   0.471   0.467   0.474   0.468   0.481   0.484   0.488   0.487   0.476   0.515   0.541   0.542   0.516   0.488
   242.80    0.470   0.481   0.514   0.484   0.485   0.512   0.487   0.448   0.447   0.463   0.463   0.510   0.514   0.510   0.489   0.467   0.435   0.441   0.472   0.455   0.437   0.423   0.446   0.438   0.459   0.434   0.472   0.433   0.446   0.471   0.458   0.445   0.454   0.451   0.459   0.479   0.487   0.440   0.379   0.391   0.402   0.389   0.457   0.493   0.512   0.490   0.517   0.496   0.475   0.502   0.503   0.496   0.494   0.502   0.539   0.505   0.484   0.505   0.545   0.544   0.513   0.505   0.512   0.510   0.549   0.567   0.525   0.522   0.536   0.573   0.557   0.527   0.484   0.475   0.488   0.483   0.453   0.437   0.467   0.430   0.460   0.519   0.525   0.483   0.489   0.474   0.482   0.496   0.529   0.527   0.505   0.470   0.484   0.461   0.488   0.474   0.473   0.474   0.463   0.482   0.521   0.478   0.493   0.498   0.499   0.462   0.492   0.481   0.516   0.512   0.481   0.512   0.501   0.500   0.498   0.471   0.471   0.466   0.466   0.472   0.479   0.469   0.491   0.473   0.509   0.507   0.524   0.492   0.490   0.503   0.537   0.519   0.509   0.512   0.518   0.514   0.539   0.511   0.521   0.512   0.458   0.446   0.409   0.430   0.428   0.451   0.419   0.422   0.411   0.391   0.397   0.384   0.388   0.393   0.387   0.374   0.373   0.407   0.389   0.402   0.422   0.447   0.473   0.480   0.472   0.435   0.442   0.458   0.426   0.434   0.444   0.451   0.444   0.437   0.458   0.443   0.450   0.459   0.501   0.496   0.482   0.497   0.486   0.488   0.480   0.474   0.487   0.474   0.495   0.527   0.525   0.472   0.462
   233.50    0.509   0.500   0.521   0.470   0.459   0.451   0.459   0.474   0.437   0.457   0.481   0.497   0.484   0.458   0.452   0.417   0.441   0.394   0.426   0.389   0.392   0.417   0.421   0.411   0.434   0.475   0.450   0.444   0.500   0.490   0.484   0.455   0.453   0.458   0.456   0.478   0.475   0.457   0.434   0.428   0.422   0.420   0.451   0.470   0.458   0.515   0.499   0.488   0.475   0.488   0.469   0.494   0.507   0.522   0.548   0.522   0.505   0.504   0.544   0.548   0.553   0.519   0.510   0.510   0.531   0.546   0.529   0.529   0.532   0.569   0.543   0.526   0.507   0.503   0.466   0.450   0.441   0.440   0.444   0.466   0.438   0.483   0.490   0.499   0.501   0.524   0.501   0.481   0.517   0.532   0.506   0.488   0.467   0.509   0.483   0.468   0.495   0.464   0.491   0.498   0.515   0.488   0.494   0.471   0.496   0.502   0.511   0.520   0.525   0.529   0.503   0.493   0.546   0.518   0.483   0.452   0.466   0.465   0.476   0.479   0.505   0.498   0.456   0.443   0.479   0.493   0.494   0.480   0.469   0.500   0.519   0.477   0.484   0.512   0.516   0.501   0.525   0.559   0.543   0.509   0.486   0.464   0.455   0.479   0.454   0.426   0.432   0.387   0.385   0.405   0.386   0.392   0.378   0.364   0.373   0.375   0.328   0.373   0.393   0.408   0.402   0.442   0.462   0.463   0.447   0.423   0.414   0.464   0.453   0.470   0.469   0.448   0.451   0.457   0.442   0.454   0.458   0.439   0.495   0.485   0.471   0.518   0.510   0.499   0.539   0.525   0.496   0.454   0.463   0.494   0.516   0.502   0.452
   224.20    0.505   0.506   0.502   0.437   0.443   0.421   0.462   0.428   0.457   0.461   0.492   0.488   0.515   0.487   0.456   0.435   0.433   0.429   0.428   0.409   0.400   0.409   0.431   0.429   0.415   0.426   0.441   0.485   0.534   0.516   0.466   0.470   0.443   0.430   0.434   0.466   0.445   0.459   0.481   0.485   0.463   0.467   0.478   0.472   0.439   0.486   0.471   0.485   0.492   0.467   0.488   0.487   0.500   0.546   0.528   0.538   0.503   0.495   0.525   0.542   0.550   0.537   0.549   0.554   0.535   0.514   0.519   0.512   0.529   0.532   0.514   0.547   0.509   0.466   0.420   0.439   0.446   0.457   0.471   0.452   0.440   0.471   0.484   0.504   0.524   0.531   0.504   0.499   0.489   0.491   0.464   0.483   0.505   0.533   0.507   0.475   0.498   0.472   0.443   0.502   0.489   0.506   0.480   0.482   0.501   0.517   0.522   0.537   0.519   0.546   0.518   0.501   0.522   0.478   0.467   0.494   0.468   0.457   0.481   0.509   0.495   0.463   0.471   0.477   0.480   0.504   0.490   0.451   0.469   0.480   0.496   0.495   0.483   0.458   0.495   0.480   0.518   0.563   0.537   0.510   0.483   0.476   0.471   0.472   0.455   0.435   0.410   0.403   0.389   0.406   0.400   0.381   0.387   0.371   0.385   0.355   0.393   0.379   0.393   0.378   0.386   0.446   0.467   0.453   0.436   0.423   0.413   0.452   0.452   0.443   0.434   0.450   0.437   0.455   0.453   0.425   0.441   0.469   0.508   0.526   0.523   0.528   0.520   0.534   0.514   0.525   0.514   0.464   0.466   0.470   0.486   0.459   0.461
   214.90    0.511   0.487   0.484   0.438   0.447   0.437   0.428   0.437   0.464   0.476   0.501   0.507   0.525   0.489   0.470   0.460   0.474   0.479   0.472   0.434   0.424   0.413   0.428   0.447   0.429   0.450   0.473   0.495   0.530   0.526   0.503   0.478   0.464   0.431   0.418   0.448   0.459   0.472   0.510   0.496   0.479   0.475   0.466   0.433   0.433   0.467   0.488   0.493   0.500   0.513   0.506   0.522   0.542   0.519   0.520   0.537   0.488   0.487   0.503   0.524   0.537   0.539   0.538   0.511   0.510   0.473   0.470   0.466   0.519   0.499   0.482   0.504   0.455   0.434   0.446   0.419   0.448   0.434   0.452   0.451   0.423   0.453   0.483   0.514   0.516   0.511   0.480   0.497   0.460   0.461   0.487   0.488   0.514   0.528   0.513   0.500   0.475   0.470   0.507   0.528   0.532   0.530   0.514   0.535   0.519   0.544   0.543   0.550   0.518   0.518   0.498   0.492   0.493   0.467   0.455   0.497   0.482   0.482   0.469   0.466   0.484   0.487   0.499   0.488   0.448   0.477   0.480   0.466   0.506   0.491   0.491   0.491   0.477   0.444   0.489   0.501   0.537   0.551   0.517   0.503   0.492   0.508   0.476   0.480   0.485   0.425   0.421   0.396   0.419   0.387   0.397   0.400   0.389   0.374   0.378   0.381   0.377   0.415   0.401   0.432   0.419   0.448   0.458   0.454   0.430   0.419   0.410   0.445   0.425   0.436   0.472   0.462   0.484   0.484   0.456   0.445   0.412   0.428   0.487   0.519   0.542   0.544   0.538   0.516   0.537   0.560   0.545   0.507   0.508   0.497   0.459   0.468   0.450
   205.60    0.507   0.458   0.465   0.449   0.413   0.433   0.448   0.444   0.453   0.447   0.457   0.501   0.523   0.486   0.476   0.469   0.511   0.506   0.520   0.472   0.447   0.447   0.474   0.447   0.439   0.430   0.461   0.493   0.512   0.516   0.474   0.483   0.467   0.451   0.415   0.451   0.463   0.483   0.519   0.524   0.496   0.448   0.435   0.438   0.457   0.502   0.517   0.523   0.489   0.497   0.497   0.490   0.519   0.548   0.547   0.503   0.495   0.486   0.480   0.514   0.541   0.523   0.527   0.482   0.459   0.450   0.443   0.466   0.477   0.449   0.470   0.483   0.439   0.413   0.416   0.404   0.415   0.438   0.458   0.451   0.470   0.499   0.485   0.485   0.484   0.463   0.461   0.461   0.456   0.473   0.475   0.497   0.512   0.523   0.491   0.505   0.477   0.486   0.517   0.525   0.532   0.558   0.532   0.511   0.527   0.557   0.524   0.530   0.503   0.483   0.492   0.505   0.459   0.457   0.502   0.496   0.515   0.491   0.472   0.474   0.504   0.510   0.495   0.457   0.442   0.461   0.474   0.485   0.505   0.490   0.484   0.503   0.480   0.500   0.474   0.512   0.539   0.527   0.498   0.519   0.527   0.494   0.495   0.515   0.454   0.434   0.410   0.393   0.381   0.400   0.393   0.368   0.360   0.358   0.333   0.365   0.394   0.392   0.399   0.426   0.456   0.459   0.442   0.464   0.434   0.438   0.425   0.427   0.437   0.454   0.490   0.479   0.508   0.507   0.506   0.462   0.443   0.449   0.474   0.516   0.508   0.522   0.532   0.518   0.513   0.557   0.554   0.532   0.528   0.502   0.452   0.498   0.467
   196.30    0.488   0.443   0.433   0.457   0.456   0.461   0.457   0.416   0.440   0.449   0.458   0.497   0.508   0.497   0.521   0.511   0.516   0.506   0.502   0.489   0.474   0.467   0.463   0.446   0.437   0.435   0.448   0.457   0.468   0.472   0.508   0.499   0.478   0.448   0.445   0.447   0.459   0.506   0.521   0.498   0.458   0.452   0.475   0.450   0.486   0.472   0.531   0.506   0.502   0.497   0.473   0.507   0.524   0.572   0.530   0.514   0.475   0.477   0.478   0.488   0.495   0.467   0.461   0.474   0.447   0.456   0.445   0.431   0.466   0.453   0.467   0.489   0.461   0.419   0.407   0.422   0.432   0.492   0.529   0.469   0.427   0.463   0.475   0.490   0.489   0.483   0.445   0.434   0.462   0.482   0.500   0.496   0.456   0.504   0.457   0.508   0.494   0.474   0.507   0.512   0.493   0.543   0.547   0.507   0.532   0.538   0.544   0.489   0.491   0.466   0.510   0.501   0.481   0.471   0.477   0.466   0.501   0.497   0.487   0.489   0.463   0.509   0.489   0.455   0.466   0.484   0.503   0.481   0.488   0.515   0.528   0.511   0.472   0.492   0.469   0.515   0.535   0.500   0.523   0.538   0.542   0.531   0.467   0.482   0.466   0.484   0.437   0.402   0.352   0.377   0.387   0.399   0.372   0.360   0.344   0.359   0.389   0.412   0.394   0.417   0.438   0.444   0.444   0.464   0.454   0.461   0.451   0.438   0.437   0.461   0.481   0.473   0.450   0.488   0.470   0.476   0.453   0.455   0.502   0.502   0.503   0.513   0.503   0.515   0.516   0.532   0.537   0.554   0.528   0.501   0.478   0.476   0.477
   187.00    0.500   0.448   0.446   0.461   0.466   0.452   0.407   0.435   0.418   0.432   0.458   0.536   0.520   0.508   0.502   0.488   0.509   0.482   0.510   0.505   0.491   0.443   0.432   0.457   0.421   0.482   0.457   0.430   0.438   0.497   0.515   0.499   0.512   0.501   0.488   0.492   0.531   0.516   0.491   0.462   0.480   0.495   0.470   0.465   0.459   0.485   0.496   0.489   0.459   0.462   0.458   0.483   0.547   0.531   0.517   0.492   0.484   0.449   0.457   0.437   0.447   0.478   0.448   0.428   0.442   0.421   0.422   0.463   0.460   0.506   0.473   0.471   0.442   0.439   0.464   0.479   0.491   0.505   0.549   0.480   0.483   0.480   0.487   0.523   0.478   0.445   0.453   0.475   0.485   0.472   0.500   0.496   0.485   0.495   0.485   0.483   0.484   0.497   0.499   0.489   0.507   0.470   0.477   0.503   0.514   0.540   0.502   0.475   0.476   0.514   0.516   0.501   0.484   0.458   0.462   0.499   0.501   0.505   0.476   0.489   0.475   0.512   0.525   0.491   0.468   0.475   0.529   0.509   0.525   0.510   0.531   0.522   0.472   0.493   0.474   0.499   0.523   0.496   0.531   0.546   0.533   0.534   0.508   0.514   0.492   0.455   0.466   0.403   0.391   0.379   0.424   0.417   0.391   0.383   0.374   0.376   0.383   0.396   0.418   0.418   0.414   0.445   0.434   0.467   0.458   0.458   0.433   0.449   0.441   0.442   0.462   0.473   0.463   0.469   0.496   0.471   0.489   0.453   0.483   0.466   0.483   0.466   0.482   0.503   0.511   0.497   0.504   0.523   0.501   0.475   0.456   0.460   0.433
   177.70    0.481   0.483   0.460   0.481   0.465   0.458   0.432   0.446   0.467   0.452   0.504   0.521   0.517   0.488   0.507   0.477   0.491   0.509   0.535   0.502   0.481   0.468   0.432   0.449   0.455   0.468   0.454   0.440   0.474   0.478   0.511   0.486   0.529   0.526   0.530   0.528   0.536   0.550   0.484   0.445   0.468   0.482   0.452   0.466   0.458   0.443   0.445   0.468   0.470   0.465   0.445   0.472   0.504   0.511   0.489   0.476   0.454   0.441   0.469   0.476   0.454   0.467   0.478   0.487   0.457   0.443   0.418   0.437   0.469   0.490   0.461   0.455   0.461   0.466   0.468   0.493   0.485   0.508   0.508   0.495   0.470   0.479   0.509   0.523   0.524   0.475   0.449   0.482   0.490   0.488   0.465   0.504   0.475   0.489   0.493   0.513   0.521   0.531   0.510   0.496   0.457   0.483   0.466   0.471   0.468   0.479   0.498   0.451   0.449   0.484   0.491   0.468   0.492   0.478   0.487   0.493   0.488   0.519   0.518   0.468   0.500   0.513   0.510   0.492   0.484   0.488   0.505   0.524   0.539   0.547   0.501   0.490   0.489   0.505   0.525   0.507   0.496   0.486   0.489   0.504   0.507   0.510   0.494   0.517   0.496   0.476   0.456   0.453   0.389   0.414   0.432   0.453   0.419   0.416   0.399   0.385   0.384   0.385   0.406   0.422   0.409   0.433   0.435   0.437   0.454   0.476   0.473   0.470   0.470   0.462   0.447   0.435   0.459   0.481   0.467   0.454   0.465   0.454   0.451   0.458   0.461   0.460   0.480   0.475   0.481   0.501   0.484   0.501   0.492   0.457   0.459   0.450   0.447
   168.40    0.462   0.473   0.493   0.474   0.463   0.429   0.433   0.465   0.480   0.496   0.537   0.531   0.495   0.477   0.486   0.479   0.487   0.515   0.500   0.508   0.482   0.445   0.427   0.436   0.428   0.465   0.496   0.472   0.478   0.481   0.486   0.494   0.525   0.509   0.523   0.549   0.566   0.543   0.513   0.480   0.465   0.468   0.464   0.465   0.465   0.461   0.416   0.415   0.462   0.482   0.479   0.476   0.493   0.480   0.484   0.495   0.479   0.446   0.461   0.449   0.454   0.455   0.470   0.477   0.447   0.426   0.414   0.442   0.453   0.441   0.433   0.453   0.452   0.441   0.474   0.459   0.471   0.473   0.459   0.461   0.443   0.465   0.504   0.542   0.541   0.505   0.496   0.511   0.499   0.496   0.488   0.482   0.481   0.504   0.492   0.498   0.506   0.484   0.495   0.448   0.437   0.461   0.478   0.466   0.470   0.484   0.462   0.486   0.497   0.460   0.469   0.473   0.473   0.495   0.492   0.492   0.478   0.470   0.486   0.472   0.496   0.507   0.500   0.486   0.502   0.471   0.462   0.497   0.528   0.538   0.494   0.491   0.474   0.483   0.492   0.492   0.500   0.464   0.455   0.462   0.469   0.469   0.487   0.481   0.516   0.484   0.466   0.445   0.415   0.436   0.464   0.427   0.428   0.422   0.411   0.432   0.385   0.414   0.436   0.427   0.430   0.422   0.415   0.469   0.469   0.458   0.467   0.450   0.450   0.442   0.421   0.421   0.449   0.456   0.482   0.468   0.471   0.436   0.426   0.441   0.437   0.439   0.451   0.437   0.455   0.452   0.500   0.474   0.455   0.443   0.464   0.446   0.433
   159.10    0.493   0.457   0.470   0.485   0.488   0.490   0.471   0.473   0.474   0.488   0.537   0.553   0.528   0.481   0.512   0.530   0.513   0.520   0.514   0.524   0.463   0.441   0.428   0.462   0.485   0.528   0.509   0.515   0.518   0.473   0.495   0.472   0.497   0.512   0.507   0.540   0.570   0.565   0.539   0.538   0.457   0.428   0.439   0.458   0.490   0.466   0.461   0.450   0.471   0.461   0.459   0.467   0.459   0.478   0.458   0.479   0.511   0.460   0.441   0.423   0.431   0.453   0.441   0.461   0.420   0.424   0.420   0.435   0.477   0.451   0.460   0.463   0.447   0.443   0.469   0.467   0.467   0.458   0.440   0.459   0.432   0.471   0.525   0.507   0.517   0.496   0.500   0.518   0.470   0.489   0.519   0.497   0.493   0.496   0.504   0.501   0.524   0.501   0.486   0.458   0.470   0.457   0.433   0.481   0.478   0.480   0.458   0.472   0.496   0.467   0.465   0.474   0.453   0.458   0.478   0.466   0.473   0.455   0.426   0.446   0.486   0.474   0.497   0.520   0.492   0.466   0.460   0.497   0.504   0.524   0.502   0.481   0.485   0.454   0.489   0.470   0.460   0.456   0.410   0.415   0.442   0.429   0.452   0.479   0.463   0.455   0.487   0.466   0.433   0.476   0.442   0.419   0.410   0.400   0.393   0.436   0.408   0.433   0.453   0.447   0.450   0.402   0.436   0.441   0.447   0.474   0.446   0.450   0.434   0.429   0.406   0.429   0.396   0.413   0.446   0.444   0.427   0.425   0.415   0.439   0.424   0.446   0.426   0.437   0.452   0.463   0.467   0.460   0.455   0.429   0.440   0.428   0.443
   149.80    0.498   0.466   0.463   0.486   0.479   0.492   0.484   0.473   0.463   0.472   0.498   0.526   0.491   0.503   0.530   0.554   0.540   0.532   0.511   0.513   0.481   0.439   0.424   0.426   0.474   0.500   0.507   0.515   0.489   0.444   0.500   0.502   0.525   0.493   0.557   0.587   0.543   0.551   0.556   0.521   0.516   0.478   0.445   0.479   0.470   0.511   0.490   0.468   0.471   0.465   0.492   0.472   0.443   0.443   0.488   0.506   0.471   0.481   0.445   0.445   0.429   0.421   0.442   0.411   0.427   0.445   0.462   0.477   0.492   0.463   0.482   0.488   0.473   0.473   0.493   0.498   0.481   0.492   0.456   0.442   0.430   0.451   0.465   0.490   0.516   0.486   0.502   0.529   0.506   0.510   0.517   0.523   0.497   0.478   0.476   0.488   0.480   0.516   0.492   0.504   0.478   0.467   0.470   0.500   0.500   0.498   0.476   0.482   0.492   0.489   0.500   0.498   0.460   0.475   0.475   0.503   0.470   0.468   0.443   0.462   0.477   0.493   0.504   0.483   0.504   0.492   0.484   0.516   0.490   0.500   0.498   0.454   0.452   0.437   0.457   0.440   0.426   0.436   0.406   0.415   0.422   0.418   0.444   0.427   0.454   0.447   0.459   0.463   0.444   0.474   0.445   0.405   0.402   0.405   0.421   0.440   0.459   0.462   0.471   0.429   0.426   0.407   0.383   0.433   0.419   0.436   0.454   0.434   0.428   0.440   0.407   0.410   0.404   0.394   0.403   0.418   0.425   0.437   0.411   0.418   0.419   0.436   0.430   0.422   0.445   0.425   0.436   0.453   0.443   0.443   0.422   0.428   0.409
   140.50    0.531   0.499   0.512   0.495   0.461   0.479   0.499   0.469   0.448   0.475   0.495   0.515   0.543   0.498   0.515   0.510   0.565   0.524   0.542   0.494   0.480   0.469   0.436   0.459   0.474   0.464   0.453   0.472   0.447   0.447   0.468   0.497   0.540   0.514   0.524   0.574   0.567   0.531   0.538   0.544   0.522   0.515   0.491   0.471   0.445   0.509   0.509   0.488   0.454   0.459   0.476   0.456   0.445   0.447   0.504   0.484   0.502   0.518   0.474   0.448   0.465   0.457   0.449   0.434   0.446   0.461   0.467   0.466   0.487   0.504   0.508   0.482   0.477   0.477   0.496   0.490   0.496   0.498   0.449   0.411   0.422   0.413   0.406   0.440   0.485   0.496   0.526   0.527   0.508   0.535   0.533   0.502   0.510   0.507   0.502   0.478   0.475   0.478   0.478   0.483   0.470   0.474   0.459   0.499   0.470   0.511   0.526   0.496   0.509   0.535   0.506   0.516   0.476   0.454   0.468   0.476   0.465   0.462   0.449   0.457   0.498   0.509   0.522   0.503   0.493   0.491   0.489   0.517   0.483   0.485   0.473   0.438   0.447   0.453   0.418   0.429   0.417   0.422   0.430   0.450   0.448   0.426   0.392   0.420   0.435   0.419   0.452   0.464   0.467   0.484   0.468   0.443   0.440   0.428   0.424   0.436   0.441   0.467   0.490   0.456   0.393   0.400   0.394   0.418   0.397   0.395   0.416   0.423   0.413   0.432   0.437   0.435   0.436   0.437   0.419   0.443   0.418   0.432   0.452   0.449   0.428   0.425   0.424   0.444   0.417   0.397   0.433   0.421   0.431   0.439   0.406   0.409   0.397
   131.20    0.492   0.450   0.502   0.514   0.487   0.465   0.453   0.499   0.472   0.521   0.510   0.509   0.528   0.510   0.522   0.530   0.537   0.512   0.511   0.511   0.492   0.508   0.453   0.447   0.489   0.460   0.471   0.478   0.445   0.424   0.441   0.492   0.520   0.536   0.537   0.560   0.561   0.560   0.542   0.528   0.522   0.506   0.469   0.481   0.460   0.502   0.529   0.506   0.498   0.490   0.474   0.457   0.423   0.435   0.460   0.464   0.499   0.490   0.452   0.456   0.463   0.453   0.425   0.428   0.458   0.464   0.478   0.493   0.475   0.507   0.498   0.492   0.502   0.492   0.478   0.464   0.469   0.484   0.449   0.457   0.444   0.428   0.436   0.441   0.469   0.489   0.533   0.548   0.539   0.523   0.544   0.490   0.518   0.520   0.494   0.452   0.441   0.481   0.491   0.464   0.455   0.456   0.471   0.504   0.513   0.527   0.528   0.551   0.524   0.535   0.491   0.466   0.490   0.461   0.466   0.452   0.448   0.479   0.433   0.457   0.474   0.546   0.534   0.526   0.486   0.510   0.505   0.506   0.489   0.437   0.421   0.417   0.430   0.469   0.427   0.408   0.439   0.458   0.459   0.457   0.410   0.379   0.377   0.405   0.390   0.389   0.440   0.464   0.467   0.484   0.450   0.462   0.447   0.420   0.396   0.426   0.461   0.470   0.471   0.443   0.417   0.408   0.408   0.418   0.420   0.416   0.409   0.427   0.415   0.427   0.440   0.462   0.461   0.468   0.469   0.420   0.381   0.434   0.472   0.475   0.473   0.435   0.432   0.453   0.403   0.362   0.413   0.402   0.420   0.425   0.410   0.422   0.412
   121.90    0.496   0.461   0.509   0.473   0.483   0.446   0.471   0.490   0.479   0.491   0.509   0.546   0.524   0.516   0.533   0.525   0.507   0.502   0.516   0.500   0.519   0.515   0.480   0.491   0.499   0.449   0.474   0.468   0.440   0.468   0.487   0.525   0.520   0.515   0.531   0.513   0.549   0.522   0.489   0.527   0.539   0.521   0.488   0.501   0.507   0.528   0.549   0.511   0.490   0.463   0.439   0.450   0.431   0.411   0.427   0.424   0.439   0.473   0.448   0.454   0.460   0.440   0.431   0.399   0.430   0.474   0.485   0.513   0.491   0.497   0.493   0.500   0.506   0.485   0.486   0.470   0.470   0.475   0.485   0.472   0.461   0.439   0.466   0.449   0.458   0.518   0.520   0.493   0.514   0.503   0.484   0.513   0.489   0.468   0.471   0.439   0.453   0.461   0.481   0.470   0.487   0.488   0.494   0.487   0.505   0.510   0.568   0.548   0.524   0.510   0.514   0.497   0.490   0.455   0.457   0.460   0.448   0.482   0.457   0.477   0.454   0.512   0.545   0.532   0.514   0.506   0.472   0.471   0.463   0.456   0.390   0.391   0.424   0.454   0.454   0.458   0.462   0.432   0.418   0.425   0.404   0.368   0.381   0.369   0.389   0.402   0.430   0.463   0.502   0.478   0.447   0.447   0.423   0.416   0.377   0.407   0.432   0.438   0.453   0.462   0.415   0.407   0.386   0.410   0.415   0.402   0.391   0.403   0.387   0.397   0.428   0.472   0.464   0.470   0.476   0.473   0.434   0.426   0.456   0.446   0.463   0.449   0.428   0.427   0.392   0.374   0.390   0.399   0.456   0.409   0.419   0.410   0.425
   112.60    0.475   0.496   0.506   0.472   0.455   0.478   0.443   0.458   0.453   0.474   0.513   0.520   0.524   0.564   0.530   0.531   0.504   0.493   0.495   0.512   0.520   0.496   0.503   0.470   0.487   0.478   0.482   0.481   0.428   0.459   0.492   0.511   0.512   0.484   0.512   0.517   0.511   0.494   0.497   0.513   0.540   0.502   0.482   0.511   0.522   0.547   0.560   0.510   0.508   0.473   0.465   0.441   0.415   0.390   0.394   0.439   0.430   0.442   0.454   0.456   0.461   0.475   0.471   0.463   0.471   0.478   0.518   0.513   0.482   0.499   0.502   0.499   0.498   0.475   0.475   0.472   0.463   0.481   0.510   0.511   0.499   0.474   0.472   0.463   0.458   0.485   0.535   0.568   0.561   0.512   0.527   0.522   0.500   0.456   0.428   0.404   0.433   0.438   0.472   0.503   0.476   0.475   0.486   0.513   0.486   0.515   0.532   0.522   0.548   0.510   0.512   0.485   0.486   0.475   0.455   0.442   0.452   0.458   0.447   0.473   0.466   0.492   0.505   0.472   0.490   0.511   0.519   0.415   0.404   0.413   0.421   0.401   0.416   0.456   0.425   0.432   0.442   0.451   0.399   0.424   0.418   0.374   0.394   0.391   0.362   0.369   0.429   0.460   0.515   0.514   0.468   0.447   0.449   0.421   0.419   0.428   0.440   0.426   0.443   0.441   0.434   0.397   0.402   0.413   0.415   0.427   0.419   0.394   0.405   0.398   0.407   0.457   0.478   0.479   0.458   0.465   0.424   0.424   0.432   0.441   0.436   0.438   0.418   0.436   0.372   0.377   0.384   0.413   0.429   0.427   0.420   0.393   0.409
   103.30    0.477   0.501   0.493   0.457   0.470   0.457   0.424   0.425   0.452   0.496   0.537   0.541   0.543   0.571   0.554   0.521   0.501   0.453   0.462   0.484   0.449   0.470   0.471   0.468   0.484   0.458   0.473   0.458   0.454   0.473   0.484   0.465   0.484   0.492   0.484   0.485   0.501   0.509   0.501   0.496   0.488   0.528   0.494   0.481   0.505   0.533   0.576   0.532   0.472   0.466   0.480   0.410   0.438   0.404   0.404   0.462   0.462   0.434   0.450   0.457   0.449   0.455   0.446   0.458   0.469   0.516   0.530   0.526   0.496   0.496   0.494   0.473   0.493   0.484   0.445   0.469   0.476   0.478   0.464   0.509   0.512   0.473   0.450   0.455   0.447   0.466   0.511   0.533   0.524   0.557   0.521   0.504   0.512   0.426   0.444   0.448   0.421   0.427   0.465   0.505   0.483   0.504   0.493   0.479   0.501   0.489   0.494   0.529   0.514   0.526   0.498   0.503   0.458   0.474   0.450   0.430   0.414   0.429   0.412   0.418   0.430   0.490   0.497   0.505   0.511   0.512   0.457   0.455   0.408   0.408   0.406   0.410   0.424   0.421   0.397   0.410   0.431   0.415   0.394   0.407   0.418   0.398   0.418   0.410   0.360   0.378   0.425   0.452   0.518   0.548   0.488   0.466   0.426   0.413   0.428   0.440   0.450   0.435   0.444   0.459   0.451   0.429   0.462   0.434   0.421   0.440   0.484   0.453   0.439   0.421   0.427   0.465   0.462   0.449   0.462   0.437   0.424   0.396   0.421   0.443   0.410   0.411   0.417   0.415   0.384   0.385   0.352   0.409   0.423   0.414   0.413   0.411   0.393
    94.00    0.472   0.479   0.490   0.466   0.476   0.457   0.428   0.429   0.469   0.528   0.562   0.518   0.517   0.537   0.555   0.546   0.492   0.453   0.455   0.460   0.462   0.473   0.487   0.465   0.504   0.539   0.505   0.466   0.478   0.447   0.463   0.468   0.449   0.464   0.466   0.468   0.479   0.493   0.497   0.496   0.529   0.494   0.479   0.487   0.491   0.536   0.580   0.578   0.522   0.482   0.477   0.411   0.396   0.429   0.446   0.458   0.407   0.438   0.460   0.454   0.431   0.438   0.437   0.443   0.491   0.516   0.519   0.514   0.500   0.529   0.489   0.485   0.493   0.481   0.446   0.460   0.480   0.487   0.486   0.467   0.461   0.453   0.451   0.447   0.456   0.472   0.480   0.496   0.552   0.579   0.542   0.514   0.484   0.476   0.444   0.421   0.410   0.436   0.458   0.502   0.490   0.507   0.472   0.457   0.473   0.464   0.455   0.486   0.470   0.485   0.445   0.443   0.400   0.410   0.433   0.427   0.388   0.384   0.376   0.416   0.437   0.463   0.484   0.538   0.495   0.490   0.474   0.458   0.436   0.410   0.390   0.390   0.397   0.380   0.417   0.407   0.418   0.386   0.376   0.382   0.397   0.407   0.401   0.410   0.400   0.422   0.438   0.477   0.476   0.502   0.484   0.471   0.471   0.469   0.445   0.462   0.435   0.453   0.453   0.453   0.457   0.436   0.455   0.443   0.444   0.470   0.464   0.449   0.415   0.418   0.417   0.443   0.435   0.442   0.417   0.438   0.417   0.420   0.447   0.455   0.427   0.437   0.412   0.396   0.391   0.403   0.374   0.413   0.422   0.414   0.404   0.412   0.398
    84.70    0.500   0.452   0.458   0.463   0.461   0.444   0.432   0.460   0.485   0.507   0.530   0.516   0.500   0.520   0.529   0.514   0.480   0.444   0.430   0.455   0.447   0.474   0.473   0.481   0.512   0.496   0.485   0.495   0.457   0.477   0.486   0.481   0.474   0.473   0.463   0.437   0.465   0.485   0.478   0.500   0.500   0.477   0.492   0.478   0.504   0.540   0.536   0.534   0.523   0.489   0.443   0.398   0.392   0.411   0.407   0.428   0.438   0.476   0.479   0.426   0.450   0.448   0.439   0.437   0.461   0.493   0.477   0.480   0.504   0.550   0.512   0.539   0.546   0.480   0.464   0.440   0.462   0.444   0.466   0.484   0.448   0.436   0.449   0.446   0.443   0.448   0.465   0.502   0.556   0.564   0.538   0.522   0.517   0.479   0.463   0.444   0.458   0.464   0.434   0.439   0.469   0.467   0.482   0.499   0.477   0.429   0.465   0.468   0.448   0.444   0.402   0.443   0.402   0.392   0.396   0.428   0.409   0.392   0.399   0.389   0.432   0.468   0.479   0.495   0.478   0.500   0.493   0.464   0.475   0.420   0.450   0.393   0.412   0.369   0.419   0.422   0.451   0.431   0.417   0.387   0.377   0.383   0.416   0.399   0.426   0.435   0.404   0.435   0.454   0.471   0.469   0.469   0.484   0.456   0.434   0.466   0.483   0.479   0.473   0.483   0.467   0.473   0.452   0.433   0.427   0.440   0.439   0.442   0.434   0.418   0.422   0.452   0.448   0.413   0.436   0.445   0.451   0.423   0.432   0.470   0.442   0.435   0.404   0.412   0.401   0.384   0.383   0.410   0.410   0.393   0.399   0.409   0.413
    75.40    0.474   0.477   0.455   0.471   0.469   0.475   0.475   0.482   0.496   0.475   0.489   0.490   0.511   0.515   0.492   0.494   0.454   0.448   0.434   0.466   0.450   0.488   0.497   0.509   0.488   0.500   0.473   0.487   0.448   0.447   0.455   0.458   0.483   0.487   0.474   0.455   0.447   0.450   0.481   0.474   0.474   0.511   0.495   0.506   0.507   0.499   0.494   0.506   0.494   0.459   0.418   0.417   0.413   0.388   0.393   0.402   0.434   0.428   0.458   0.439   0.410   0.422   0.419   0.425   0.446   0.455   0.490   0.492   0.499   0.537   0.562   0.574   0.534   0.499   0.455   0.464   0.456   0.454   0.435   0.450   0.457   0.441   0.472   0.489   0.471   0.471   0.482   0.492   0.518   0.535   0.534   0.530   0.516   0.507   0.502   0.458   0.449   0.458   0.429   0.432   0.434   0.441   0.471   0.459   0.456   0.461   0.438   0.449   0.443   0.450   0.437   0.443   0.417   0.403   0.399   0.404   0.403   0.396   0.407   0.414   0.438   0.464   0.491   0.492   0.480   0.502   0.491   0.481   0.491   0.471   0.434   0.442   0.424   0.410   0.441   0.430   0.464   0.438   0.417   0.391   0.394   0.378   0.413   0.435   0.422   0.431   0.436   0.438   0.433   0.458   0.478   0.458   0.486   0.468   0.458   0.465   0.477   0.474   0.476   0.486   0.489   0.455   0.464   0.435   0.413   0.402   0.428   0.433   0.412   0.437   0.443   0.433   0.447   0.443   0.445   0.461   0.467   0.432   0.462   0.498   0.456   0.458   0.414   0.393   0.389   0.381   0.407   0.408   0.415   0.415   0.425   0.418   0.427
    66.10    0.501   0.495   0.454   0.471   0.494   0.522   0.490   0.515   0.488   0.476   0.506   0.536   0.489   0.503   0.481   0.475   0.485   0.452   0.499   0.483   0.477   0.510   0.536   0.541   0.526   0.489   0.486   0.483   0.450   0.453   0.472   0.463   0.455   0.475   0.450   0.434   0.433   0.432   0.452   0.488   0.484   0.483   0.556   0.497   0.483   0.455   0.462   0.484   0.484   0.421   0.439   0.403   0.418   0.396   0.377   0.376   0.416   0.427   0.434   0.417   0.434   0.417   0.414   0.446   0.431   0.461   0.467   0.492   0.500   0.539   0.569   0.569   0.519   0.486   0.457   0.444   0.458   0.442   0.425   0.429   0.401   0.420   0.439   0.478   0.489   0.511   0.539   0.505   0.532   0.545   0.538   0.511   0.539   0.520   0.507   0.479   0.465   0.460   0.423   0.426   0.443   0.435   0.457   0.451   0.469   0.445   0.457   0.480   0.452   0.428   0.456   0.452   0.438   0.366   0.376   0.363   0.391   0.402   0.436   0.434   0.436   0.436   0.455   0.482   0.487   0.502   0.468   0.505   0.453   0.451   0.462   0.443   0.436   0.408   0.443   0.449   0.449   0.424   0.418   0.415   0.405   0.410   0.414   0.412   0.416   0.424   0.453   0.446   0.437   0.443   0.444   0.435   0.441   0.434   0.436   0.415   0.445   0.450   0.460   0.473   0.483   0.450   0.475   0.422   0.416   0.439   0.426   0.428   0.443   0.455   0.447   0.451   0.431   0.421   0.435   0.459   0.454   0.435   0.479   0.463   0.472   0.442   0.428   0.374   0.401   0.384   0.398   0.407   0.417   0.383   0.403   0.410   0.444
    56.80    0.510   0.512   0.484   0.472   0.495   0.518   0.538   0.531   0.558   0.499   0.509   0.518   0.500   0.496   0.480   0.490   0.483   0.498   0.504   0.525   0.492   0.528   0.537   0.520   0.511   0.512   0.478   0.503   0.476   0.459   0.446   0.472   0.467   0.493   0.444   0.421   0.435   0.446   0.430   0.497   0.511   0.520   0.526   0.495   0.483   0.465   0.452   0.460   0.464   0.474   0.419   0.394   0.403   0.386   0.385   0.416   0.398   0.429   0.411   0.446   0.478   0.436   0.418   0.444   0.461   0.456   0.445   0.452   0.470   0.501   0.542   0.541   0.502   0.480   0.473   0.420   0.459   0.451   0.463   0.424   0.426   0.425   0.430   0.440   0.470   0.493   0.493   0.476   0.517   0.538   0.546   0.512   0.489   0.504   0.488   0.479   0.466   0.437   0.436   0.427   0.426   0.444   0.469   0.487   0.485   0.449   0.459   0.482   0.484   0.454   0.455   0.462   0.416   0.374   0.377   0.388   0.394   0.416   0.447   0.421   0.470   0.468   0.446   0.474   0.477   0.470   0.464   0.459   0.473   0.481   0.478   0.464   0.441   0.416   0.451   0.451   0.460   0.425   0.422   0.423   0.408   0.411   0.419   0.400   0.394   0.424   0.433   0.432   0.407   0.423   0.411   0.384   0.408   0.412   0.418   0.407   0.438   0.455   0.437   0.472   0.486   0.468   0.485   0.451   0.407   0.436   0.445   0.452   0.438   0.430   0.464   0.459   0.439   0.426   0.415   0.451   0.463   0.455   0.472   0.453   0.463   0.475   0.490   0.422   0.434   0.413   0.414   0.430   0.413   0.395   0.397   0.421   0.440
    47.50    0.475   0.500   0.486   0.499   0.536   0.545   0.536   0.540   0.540   0.549   0.511   0.523   0.515   0.499   0.501   0.541   0.519   0.511   0.480   0.504   0.520   0.509   0.509   0.509   0.498   0.473   0.470   0.455   0.454   0.435   0.465   0.435   0.450   0.451   0.429   0.455   0.448   0.451   0.486   0.489   0.484   0.505   0.510   0.492   0.503   0.506   0.461   0.460   0.481   0.442   0.420   0.396   0.390   0.384   0.390   0.393   0.406   0.425   0.405   0.434   0.430   0.431   0.436   0.436   0.450   0.492   0.475   0.483   0.467   0.498   0.512   0.515   0.466   0.455   0.448   0.448   0.462   0.465   0.464   0.470   0.452   0.428   0.437   0.415   0.448   0.472   0.477   0.494   0.533   0.504   0.511   0.514   0.492   0.499   0.492   0.496   0.469   0.455   0.449   0.447   0.486   0.509   0.488   0.498   0.520   0.476   0.468   0.497   0.459   0.487   0.444   0.441   0.451   0.442   0.418   0.411   0.404   0.432   0.423   0.443   0.450   0.445   0.439   0.452   0.445   0.448   0.449   0.440   0.471   0.491   0.467   0.463   0.451   0.431   0.427   0.439   0.424   0.438   0.428   0.433   0.388   0.387   0.411   0.409   0.390   0.443   0.423   0.386   0.406   0.406   0.392   0.403   0.403   0.397   0.389   0.401   0.413   0.447   0.445   0.473   0.474   0.487   0.478   0.456   0.445   0.416   0.422   0.447   0.464   0.445   0.460   0.428   0.433   0.451   0.416   0.450   0.467   0.458   0.473   0.459   0.468   0.485   0.469   0.450   0.450   0.425   0.427   0.408   0.413   0.430   0.430   0.438   0.445
    38.20    0.443   0.467   0.497   0.488   0.530   0.541   0.529   0.503   0.511   0.551   0.533   0.556   0.509   0.519   0.517   0.528   0.550   0.531   0.489   0.492   0.493   0.509   0.491   0.514   0.474   0.478   0.470   0.460   0.450   0.430   0.472   0.479   0.465   0.464   0.449   0.473   0.488   0.492   0.484   0.456   0.472   0.464   0.453   0.460   0.461   0.481   0.479   0.468   0.455   0.439   0.434   0.407   0.391   0.401   0.400   0.401   0.451   0.444   0.417   0.431   0.434   0.413   0.430   0.452   0.440   0.440   0.407   0.440   0.446   0.473   0.470   0.487   0.499   0.502   0.453   0.467   0.468   0.505   0.481   0.465   0.469   0.475   0.433   0.440   0.463   0.451   0.455   0.487   0.507   0.500   0.502   0.499   0.519   0.478   0.488   0.500   0.477   0.468   0.462   0.476   0.483   0.502   0.513   0.473   0.466   0.448   0.453   0.480   0.505   0.487   0.446   0.468   0.452   0.468   0.443   0.421   0.444   0.431   0.450   0.418   0.443   0.448   0.414   0.412   0.435   0.424   0.435   0.417   0.432   0.486   0.458   0.447   0.441   0.432   0.429   0.430   0.437   0.435   0.411   0.426   0.424   0.394   0.415   0.393   0.415   0.403   0.425   0.416   0.395   0.372   0.401   0.394   0.398   0.394   0.397   0.386   0.404   0.430   0.442   0.475   0.497   0.459   0.451   0.431   0.434   0.440   0.437   0.433   0.430   0.451   0.452   0.460   0.419   0.448   0.442   0.470   0.491   0.502   0.475   0.472   0.464   0.447   0.424   0.418   0.408   0.438   0.467   0.441   0.429   0.464   0.465   0.456   0.440
    28.90    0.486   0.470   0.494   0.496   0.511   0.546   0.471   0.493   0.506   0.497   0.532   0.504   0.513   0.489   0.511   0.532   0.523   0.498   0.519   0.517   0.500   0.503   0.459   0.450   0.477   0.471   0.442   0.450   0.491   0.456   0.450   0.496   0.468   0.490   0.480   0.466   0.472   0.468   0.496   0.444   0.456   0.441   0.473   0.444   0.476   0.477   0.477   0.480   0.471   0.453   0.435   0.431   0.402   0.391   0.400   0.415   0.459   0.456   0.432   0.428   0.415   0.419   0.405   0.413   0.394   0.400   0.410   0.431   0.438   0.450   0.499   0.508   0.492   0.494   0.469   0.467   0.498   0.520   0.494   0.495   0.492   0.509   0.492   0.471   0.470   0.420   0.456   0.470   0.488   0.501   0.479   0.498   0.477   0.487   0.506   0.495   0.522   0.509   0.518   0.492   0.467   0.443   0.444   0.455   0.429   0.386   0.444   0.470   0.489   0.469   0.460   0.466   0.464   0.447   0.465   0.459   0.474   0.445   0.427   0.446   0.426   0.413   0.391   0.418   0.408   0.424   0.435   0.434   0.447   0.443   0.435   0.451   0.427   0.442   0.431   0.459   0.437   0.414   0.415   0.397   0.409   0.414   0.384   0.421   0.424   0.401   0.417   0.416   0.399   0.380   0.379   0.395   0.412   0.385   0.387   0.405   0.408   0.436   0.449   0.455   0.472   0.436   0.415   0.456   0.448   0.447   0.449   0.452   0.466   0.466   0.461   0.481   0.485   0.428   0.448   0.469   0.487   0.477   0.486   0.446   0.432   0.401   0.434   0.420   0.426   0.420   0.425   0.456   0.490   0.453   0.485   0.468   0.456
    19.60    0.480   0.492   0.514   0.472   0.502   0.506   0.481   0.520   0.494   0.528   0.509   0.528   0.519   0.486   0.511   0.546   0.546   0.516   0.520   0.535   0.498   0.530   0.500   0.481   0.451   0.439   0.458   0.465   0.476   0.480   0.480   0.464   0.470   0.477   0.508   0.471   0.475   0.460   0.455   0.444   0.418   0.435   0.437   0.454   0.481   0.455   0.469   0.464   0.448   0.442   0.424   0.412   0.412   0.416   0.444   0.477   0.453   0.455   0.423   0.436   0.405   0.406   0.397   0.409   0.379   0.396   0.401   0.451   0.456   0.477   0.493   0.495   0.471   0.510   0.486   0.474   0.465   0.496   0.469   0.472   0.467   0.480   0.508   0.497   0.486   0.436   0.414   0.437   0.479   0.474   0.462   0.467   0.476   0.491   0.525   0.513   0.547   0.551   0.504   0.486   0.474   0.428   0.437   0.401   0.452   0.436   0.468   0.501   0.470   0.494   0.479   0.462   0.461   0.441   0.428   0.446   0.449   0.457   0.447   0.438   0.411   0.382   0.380   0.405   0.405   0.406   0.414   0.440   0.422   0.419   0.416   0.424   0.425   0.432   0.473   0.469   0.436   0.418   0.410   0.394   0.420   0.422   0.385   0.427   0.407   0.414   0.409   0.390   0.373   0.386   0.385   0.385   0.395   0.394   0.404   0.424   0.408   0.419   0.435   0.448   0.438   0.421   0.419   0.434   0.444   0.448   0.427   0.428   0.488   0.494   0.466   0.449   0.453   0.463   0.444   0.444   0.432   0.445   0.443   0.424   0.439   0.400   0.428   0.440   0.438   0.468   0.458   0.451   0.443   0.464   0.464   0.471   0.437
    10.30    0.472   0.509   0.519   0.488   0.498   0.497   0.532   0.503   0.527   0.533   0.505   0.508   0.490   0.494   0.489   0.529   0.507   0.502   0.500   0.484   0.512   0.548   0.528   0.468   0.432   0.433   0.454   0.444   0.472   0.483   0.470   0.467   0.459   0.453   0.495   0.471   0.454   0.454   0.458   0.429   0.458   0.450   0.444   0.461   0.449   0.420   0.452   0.451   0.466   0.421   0.418   0.414   0.437   0.453   0.476   0.474   0.465   0.461   0.426   0.407   0.401   0.412   0.407   0.384   0.396   0.417   0.444   0.467   0.466   0.488   0.514   0.498   0.496   0.493   0.504   0.489   0.475   0.498   0.490   0.503   0.491   0.489   0.517   0.491   0.515   0.476   0.429   0.424   0.473   0.484   0.479   0.466   0.476   0.529   0.528   0.537   0.526   0.517   0.525   0.489   0.473   0.454   0.433   0.448   0.481   0.483   0.489   0.487   0.460   0.481   0.479   0.475   0.454   0.430   0.419   0.413   0.412   0.439   0.437   0.462   0.405   0.412   0.390   0.377   0.406   0.403   0.380   0.409   0.426   0.420   0.421   0.456   0.431   0.446   0.428   0.436   0.429   0.423   0.449   0.434   0.428   0.442   0.427   0.424   0.420   0.449   0.404   0.397   0.399   0.409   0.421   0.410   0.403   0.410   0.402   0.421   0.420   0.412   0.441   0.462   0.465   0.437   0.452   0.425   0.427   0.432   0.438   0.451   0.470   0.478   0.435   0.434   0.451   0.476   0.436   0.427   0.403   0.422   0.434   0.430   0.417   0.423   0.438   0.422   0.441   0.453   0.459   0.448   0.439   0.477   0.467   0.442   0.468
     1.00    0.477   0.474   0.473   0.488   0.481   0.507   0.504   0.500   0.517   0.515   0.492   0.494   0.488   0.510   0.465   0.485   0.498   0.496   0.513   0.534   0.494   0.516   0.534   0.477   0.459   0.447   0.461   0.447   0.426   0.478   0.470   0.460   0.458   0.464   0.467   0.457   0.439   0.434   0.427   0.467   0.457   0.463   0.453   0.470   0.492   0.455   0.437   0.457   0.458   0.425   0.406   0.434   0.456   0.475   0.473   0.479   0.464   0.469   0.426   0.437   0.438   0.414   0.411   0.402   0.402   0.435   0.455   0.471   0.461   0.470   0.473   0.472   0.482   0.494   0.511   0.491   0.470   0.465   0.499   0.489   0.503   0.482   0.491   0.485   0.470   0.496   0.457   0.429   0.454   0.476   0.480   0.487   0.497   0.524   0.486   0.535   0.536   0.526   0.482   0.518   0.481   0.452   0.463   0.447   0.468   0.462   0.477   0.482   0.504   0.514   0.497   0.488   0.465   0.405   0.425   0.420   0.443   0.438   0.439   0.422   0.405   0.405   0.373   0.377   0.390   0.386   0.387   0.389   0.411   0.414   0.431   0.430   0.428   0.406   0.417   0.438   0.416   0.407   0.423   0.446   0.459   0.420   0.429   0.451   0.466   0.458   0.444   0.423   0.393   0.411   0.446   0.438   0.439   0.444   0.450   0.450   0.428   0.408   0.426   0.430   0.443   0.448   0.464   0.453   0.465   0.468   0.443   0.461   0.469   0.459   0.463   0.474   0.478   0.422   0.453   0.434   0.448   0.430   0.448   0.434   0.432   0.447   0.438   0.418   0.448   0.413   0.451   0.448   0.470   0.471   0.448   0.452   0.452

   Height   Standard deviation at grid points for the v component:
   354.40    0.394   0.393   0.397   0.399   0.405   0.422   0.405   0.422   0.402   0.400   0.394   0.394   0.378   0.387   0.387   0.405   0.416   0.416   0.394   0.382   0.400   0.409   0.391   0.418   0.426   0.400   0.396   0.396   0.387   0.370   0.363   0.378   0.382   0.371   0.355   0.384   0.384   0.374   0.378   0.360   0.334   0.357   0.357   0.364   0.397   0.420   0.405   0.408   0.394   0.392   0.400   0.404   0.383   0.398   0.394   0.408   0.415   0.431   0.426   0.422   0.417   0.437   0.428   0.433   0.400   0.404   0.414   0.413   0.408   0.410   0.412   0.415   0.408   0.421   0.400   0.413   0.406   0.378   0.386   0.394   0.380   0.375   0.363   0.371   0.382   0.383   0.393   0.392   0.398   0.396   0.412   0.423   0.435   0.427   0.414   0.396   0.385   0.364   0.365   0.387   0.365   0.348   0.379   0.386   0.408   0.402   0.364   0.367   0.351   0.363   0.358   0.363   0.382   0.358   0.381   0.360   0.358   0.359   0.393   0.404   0.409   0.372   0.387   0.360   0.381   0.393   0.392   0.418   0.421   0.402   0.411   0.405   0.406   0.431   0.430   0.409   0.419   0.411   0.423   0.404   0.403   0.410   0.418   0.433   0.408   0.411   0.415   0.404   0.400   0.405   0.410   0.409   0.377   0.387   0.355   0.380   0.371   0.363   0.345   0.377   0.389   0.374   0.378   0.385   0.376   0.363   0.364   0.376   0.374   0.379   0.386   0.407   0.416   0.431   0.452   0.479   0.462   0.442   0.455   0.446   0.448   0.423   0.413   0.399   0.415   0.426   0.430   0.433   0.411   0.416   0.429   0.413   0.402
   345.10    0.385   0.388   0.397   0.417   0.419   0.411   0.417   0.411   0.405   0.413   0.414   0.410   0.391   0.399   0.418   0.429   0.423   0.380   0.381   0.386   0.399   0.388   0.402   0.405   0.415   0.408   0.398   0.391   0.366   0.363   0.361   0.379   0.371   0.377   0.354   0.371   0.370   0.359   0.380   0.359   0.329   0.322   0.358   0.380   0.386   0.420   0.417   0.399   0.412   0.410   0.421   0.418   0.413   0.394   0.414   0.435   0.440   0.458   0.431   0.430   0.411   0.424   0.433   0.425   0.424   0.416   0.428   0.397   0.415   0.425   0.432   0.421   0.409   0.419   0.387   0.394   0.376   0.387   0.394   0.365   0.364   0.366   0.350   0.356   0.382   0.389   0.410   0.388   0.394   0.398   0.407   0.423   0.435   0.427   0.404   0.394   0.366   0.373   0.374   0.382   0.367   0.380   0.398   0.418   0.409   0.402   0.383   0.369   0.356   0.379   0.368   0.373   0.375   0.355   0.368   0.373   0.382   0.397   0.400   0.399   0.392   0.388   0.374   0.385   0.402   0.420   0.416   0.400   0.401   0.407   0.400   0.387   0.416   0.420   0.411   0.388   0.410   0.425   0.429   0.420   0.397   0.413   0.421   0.422   0.436   0.444   0.438   0.402   0.385   0.369   0.389   0.394   0.403   0.385   0.371   0.368   0.364   0.373   0.349   0.376   0.398   0.376   0.371   0.368   0.377   0.370   0.353   0.366   0.390   0.392   0.403   0.423   0.402   0.427   0.443   0.461   0.469   0.450   0.428   0.426   0.430   0.424   0.426   0.419   0.406   0.408   0.405   0.431   0.409   0.414   0.429   0.416   0.418
   335.80    0.388   0.405   0.411   0.412   0.396   0.414   0.404   0.402   0.404   0.416   0.413   0.394   0.393   0.393   0.432   0.425   0.431   0.416   0.399   0.401   0.395   0.410   0.417   0.424   0.442   0.426   0.404   0.392   0.395   0.353   0.358   0.376   0.374   0.385   0.352   0.389   0.387   0.368   0.360   0.353   0.347   0.346   0.359   0.393   0.396   0.400   0.409   0.407   0.388   0.394   0.415   0.410   0.413   0.410   0.399   0.440   0.429   0.448   0.432   0.421   0.425   0.405   0.422   0.426   0.414   0.432   0.441   0.433   0.413   0.417   0.407   0.404   0.407   0.404   0.374   0.390   0.384   0.396   0.393   0.375   0.348   0.340   0.326   0.338   0.358   0.386   0.401   0.406   0.391   0.397   0.410   0.395   0.415   0.424   0.419   0.392   0.368   0.367   0.383   0.386   0.390   0.388   0.419   0.421   0.407   0.392   0.370   0.389   0.368   0.377   0.360   0.366   0.378   0.371   0.397   0.394   0.406   0.411   0.424   0.428   0.412   0.397   0.411   0.396   0.408   0.430   0.422   0.414   0.399   0.390   0.384   0.396   0.389   0.389   0.397   0.406   0.409   0.431   0.438   0.421   0.418   0.423   0.440   0.431   0.437   0.446   0.422   0.419   0.409   0.399   0.386   0.394   0.391   0.378   0.348   0.358   0.357   0.351   0.365   0.371   0.382   0.365   0.357   0.374   0.356   0.355   0.351   0.375   0.378   0.388   0.401   0.413   0.408   0.442   0.440   0.434   0.446   0.425   0.406   0.405   0.424   0.432   0.425   0.395   0.406   0.404   0.400   0.407   0.425   0.406   0.426   0.424   0.408
   326.50    0.372   0.384   0.398   0.402   0.423   0.417   0.412   0.410   0.405   0.402   0.387   0.387   0.398   0.417   0.421   0.408   0.398   0.411   0.417   0.402   0.409   0.422   0.426   0.447   0.441   0.403   0.388   0.391   0.388   0.378   0.362   0.391   0.380   0.373   0.375   0.385   0.390   0.369   0.353   0.359   0.378   0.384   0.377   0.394   0.394   0.401   0.401   0.382   0.389   0.384   0.389   0.413   0.439   0.426   0.413   0.441   0.424   0.452   0.442   0.415   0.411   0.399   0.396   0.426   0.407   0.434   0.432   0.429   0.428   0.422   0.404   0.413   0.396   0.391   0.373   0.376   0.382   0.373   0.357   0.370   0.356   0.342   0.340   0.354   0.354   0.360   0.390   0.383   0.378   0.386   0.392   0.388   0.412   0.407   0.400   0.379   0.351   0.341   0.377   0.384   0.381   0.395   0.428   0.422   0.413   0.399   0.392   0.404   0.389   0.366   0.373   0.375   0.378   0.366   0.387   0.408   0.412   0.404   0.426   0.407   0.406   0.412   0.421   0.429   0.408   0.431   0.434   0.416   0.400   0.395   0.395   0.389   0.382   0.407   0.404   0.420   0.424   0.411   0.422   0.421   0.420   0.430   0.445   0.434   0.443   0.431   0.413   0.428   0.407   0.413   0.394   0.402   0.391   0.398   0.381   0.375   0.372   0.357   0.368   0.372   0.366   0.362   0.357   0.357   0.366   0.362   0.359   0.389   0.394   0.388   0.406   0.413   0.432   0.427   0.434   0.433   0.446   0.426   0.406   0.422   0.414   0.407   0.408   0.412   0.409   0.399   0.407   0.396   0.408   0.416   0.406   0.407   0.393
[...]
   103.30    0.245   0.247   0.249   0.249   0.236   0.233   0.230   0.233   0.234   0.221   0.231   0.233   0.241   0.244   0.244   0.243   0.240   0.243   0.238   0.244   0.235   0.239   0.240   0.231   0.234   0.237   0.230   0.237   0.222   0.226   0.228   0.229   0.235   0.236   0.243   0.240   0.224   0.235   0.236   0.231   0.236   0.238   0.241   0.236   0.237   0.233   0.238   0.229   0.239   0.238   0.245   0.253   0.246   0.233   0.223   0.236   0.238   0.241   0.238   0.246   0.249   0.240   0.229   0.233   0.228   0.227   0.234   0.239   0.236   0.236   0.234   0.230   0.228   0.235   0.227   0.229   0.226   0.228   0.233   0.237   0.234   0.232   0.233   0.238   0.229   0.228   0.233   0.231   0.233   0.232   0.243   0.238   0.236   0.245   0.247   0.243   0.240   0.230   0.231   0.228   0.237   0.229   0.242   0.234   0.234   0.245   0.255   0.237   0.221   0.228   0.228   0.225   0.237   0.238   0.245   0.246   0.255   0.253   0.241   0.240   0.238   0.242   0.237   0.239   0.232   0.235   0.234   0.233   0.238   0.239   0.246   0.248   0.248   0.240   0.250   0.252   0.241   0.243   0.241   0.241   0.247   0.248   0.253   0.244   0.237   0.238   0.240   0.232   0.242   0.234   0.239   0.239   0.238   0.235   0.238   0.240   0.239   0.243   0.242   0.240   0.237   0.237   0.232   0.235   0.234   0.245   0.234   0.236   0.237   0.247   0.247   0.238   0.236   0.234   0.232   0.233   0.242   0.238   0.240   0.235   0.230   0.229   0.234   0.234   0.237   0.230   0.240   0.245   0.237   0.242   0.239   0.227   0.241
    94.00    0.246   0.246   0.248   0.243   0.240   0.237   0.233   0.228   0.230   0.231   0.239   0.235   0.240   0.244   0.240   0.233   0.235   0.234   0.240   0.247   0.240   0.239   0.239   0.242   0.235   0.244   0.240   0.240   0.226   0.232   0.231   0.226   0.230   0.235   0.231   0.238   0.230   0.234   0.230   0.228   0.232   0.242   0.237   0.236   0.231   0.227   0.228   0.224   0.230   0.233   0.238   0.240   0.242   0.245   0.238   0.243   0.242   0.237   0.243   0.236   0.235   0.242   0.238   0.235   0.224   0.228   0.233   0.234   0.232   0.232   0.232   0.237   0.233   0.231   0.230   0.232   0.230   0.233   0.232   0.240   0.240   0.237   0.238   0.238   0.237   0.220   0.232   0.231   0.239   0.237   0.236   0.240   0.238   0.240   0.245   0.245   0.242   0.233   0.224   0.219   0.228   0.227   0.237   0.241   0.235   0.247   0.247   0.236   0.233   0.235   0.237   0.233   0.242   0.247   0.243   0.241   0.248   0.245   0.243   0.246   0.236   0.244   0.234   0.230   0.236   0.243   0.234   0.229   0.240   0.242   0.240   0.240   0.250   0.252   0.249   0.241   0.237   0.231   0.242   0.240   0.245   0.245   0.241   0.236   0.233   0.234   0.237   0.228   0.235   0.239   0.227   0.232   0.227   0.234   0.234   0.230   0.237   0.251   0.246   0.232   0.230   0.225   0.233   0.235   0.227   0.243   0.237   0.236   0.242   0.246   0.246   0.232   0.244   0.243   0.235   0.236   0.235   0.229   0.237   0.228   0.231   0.235   0.245   0.240   0.233   0.234   0.233   0.246   0.235   0.239   0.234   0.241   0.247
    84.70    0.245   0.245   0.241   0.244   0.235   0.243   0.238   0.236   0.235   0.229   0.231   0.238   0.239   0.240   0.231   0.234   0.234   0.234   0.248   0.247   0.235   0.235   0.247   0.250   0.250   0.246   0.237   0.244   0.238   0.235   0.231   0.228   0.229   0.229   0.233   0.229   0.239   0.228   0.235   0.231   0.230   0.238   0.234   0.242   0.238   0.229   0.232   0.226   0.229   0.232   0.236   0.241   0.232   0.241   0.242   0.235   0.229   0.243   0.241   0.232   0.236   0.234   0.238   0.231   0.231   0.238   0.238   0.238   0.241   0.236   0.243   0.246   0.240   0.233   0.230   0.237   0.227   0.237   0.235   0.236   0.240   0.241   0.233   0.231   0.224   0.221   0.236   0.239   0.235   0.232   0.232   0.241   0.234   0.238   0.242   0.244   0.243   0.232   0.234   0.222   0.219   0.224   0.225   0.236   0.239   0.245   0.243   0.239   0.239   0.230   0.238   0.242   0.239   0.247   0.242   0.243   0.239   0.234   0.242   0.235   0.231   0.243   0.233   0.225   0.235   0.234   0.224   0.229   0.237   0.243   0.243   0.235   0.233   0.241   0.245   0.237   0.236   0.234   0.232   0.237   0.240   0.237   0.236   0.228   0.235   0.235   0.231   0.239   0.240   0.240   0.232   0.231   0.234   0.227   0.230   0.239   0.247   0.249   0.249   0.236   0.239   0.232   0.235   0.242   0.241   0.241   0.236   0.242   0.230   0.227   0.233   0.237   0.245   0.243   0.236   0.237   0.238   0.235   0.233   0.229   0.236   0.238   0.239   0.238   0.234   0.236   0.233   0.242   0.230   0.229   0.238   0.242   0.242
    75.40    0.239   0.235   0.240   0.244   0.242   0.243   0.243   0.235   0.240   0.243   0.241   0.236   0.235   0.232   0.240   0.231   0.239   0.242   0.246   0.236   0.235   0.229   0.242   0.247   0.244   0.239   0.241   0.232   0.235   0.240   0.240   0.228   0.232   0.237   0.229   0.238   0.235   0.226   0.228   0.231   0.233   0.230   0.240   0.234   0.233   0.232   0.229   0.223   0.231   0.229   0.238   0.244   0.238   0.240   0.235   0.235   0.230   0.233   0.231   0.230   0.237   0.238   0.234   0.234   0.238   0.237   0.243   0.244   0.237   0.234   0.238   0.243   0.243   0.238   0.240   0.236   0.234   0.236   0.235   0.229   0.233   0.229   0.228   0.231   0.226   0.234   0.236   0.236   0.238   0.241   0.232   0.238   0.233   0.239   0.234   0.247   0.244   0.236   0.236   0.225   0.218   0.223   0.221   0.226   0.236   0.244   0.241   0.243   0.242   0.240   0.237   0.245   0.245   0.248   0.247   0.241   0.243   0.237   0.235   0.235   0.233   0.237   0.234   0.241   0.237   0.239   0.229   0.239   0.237   0.238   0.238   0.241   0.242   0.241   0.233   0.237   0.231   0.227   0.228   0.230   0.239   0.238   0.241   0.239   0.232   0.233   0.227   0.227   0.234   0.236   0.232   0.226   0.224   0.233   0.230   0.239   0.236   0.242   0.240   0.234   0.232   0.242   0.238   0.242   0.233   0.235   0.241   0.244   0.233   0.224   0.235   0.233   0.240   0.238   0.234   0.230   0.233   0.235   0.225   0.233   0.231   0.233   0.241   0.237   0.234   0.233   0.233   0.233   0.232   0.233   0.235   0.231   0.234
    66.10    0.239   0.237   0.241   0.246   0.245   0.248   0.250   0.242   0.238   0.242   0.236   0.237   0.232   0.237   0.234   0.227   0.233   0.234   0.237   0.231   0.237   0.242   0.235   0.230   0.238   0.233   0.235   0.228   0.235   0.235   0.236   0.241   0.232   0.236   0.236   0.225   0.237   0.228   0.232   0.236   0.235   0.242   0.235   0.233   0.238   0.234   0.228   0.226   0.231   0.228   0.233   0.235   0.232   0.239   0.235   0.232   0.230   0.237   0.231   0.221   0.231   0.231   0.234   0.233   0.238   0.250   0.241   0.244   0.244   0.246   0.238   0.241   0.241   0.236   0.234   0.223   0.228   0.235   0.239   0.240   0.227   0.225   0.229   0.234   0.228   0.231   0.236   0.231   0.240   0.242   0.234   0.230   0.238   0.239   0.237   0.242   0.244   0.242   0.238   0.233   0.233   0.222   0.218   0.224   0.230   0.249   0.237   0.241   0.244   0.248   0.246   0.246   0.249   0.244   0.236   0.232   0.241   0.237   0.237   0.236   0.236   0.238   0.241   0.247   0.242   0.239   0.238   0.234   0.236   0.237   0.247   0.237   0.237   0.235   0.235   0.236   0.236   0.230   0.233   0.237   0.240   0.243   0.239   0.237   0.236   0.235   0.231   0.232   0.234   0.233   0.230   0.230   0.236   0.234   0.234   0.238   0.236   0.232   0.232   0.227   0.235   0.238   0.248   0.241   0.238   0.241   0.233   0.224   0.228   0.229   0.230   0.233   0.232   0.234   0.236   0.240   0.233   0.232   0.223   0.225   0.226   0.230   0.232   0.231   0.232   0.230   0.238   0.242   0.232   0.225   0.234   0.235   0.235
    56.80    0.238   0.242   0.245   0.247   0.244   0.242   0.246   0.241   0.230   0.233   0.240   0.236   0.232   0.234   0.229   0.237   0.235   0.229   0.233   0.233   0.229   0.231   0.234   0.232   0.233   0.234   0.228   0.234   0.239   0.237   0.224   0.233   0.231   0.234   0.240   0.236   0.230   0.230   0.242   0.243   0.237   0.233   0.235   0.239   0.234   0.236   0.233   0.225   0.229   0.230   0.229   0.235   0.234   0.232   0.229   0.229   0.235   0.237   0.235   0.235   0.238   0.232   0.237   0.232   0.242   0.240   0.245   0.247   0.244   0.233   0.239   0.237   0.237   0.231   0.237   0.227   0.233   0.241   0.234   0.236   0.227   0.229   0.227   0.229   0.224   0.227   0.236   0.239   0.242   0.232   0.226   0.230   0.238   0.236   0.238   0.238   0.238   0.240   0.238   0.235   0.232   0.223   0.233   0.239   0.231   0.245   0.245   0.250   0.257   0.249   0.246   0.242   0.240   0.239   0.236   0.236   0.242   0.241   0.242   0.241   0.241   0.236   0.243   0.244   0.244   0.239   0.238   0.239   0.233   0.242   0.243   0.242   0.233   0.230   0.224   0.233   0.234   0.232   0.240   0.243   0.239   0.242   0.239   0.239   0.241   0.241   0.236   0.235   0.235   0.235   0.242   0.241   0.234   0.236   0.239   0.238   0.241   0.239   0.235   0.233   0.233   0.234   0.242   0.241   0.233   0.237   0.234   0.232   0.228   0.225   0.232   0.231   0.240   0.238   0.230   0.232   0.235   0.227   0.231   0.232   0.226   0.228   0.230   0.232   0.229   0.226   0.236   0.243   0.235   0.237   0.234   0.229   0.235
    47.50    0.235   0.241   0.245   0.250   0.245   0.244   0.241   0.237   0.230   0.234   0.240   0.241   0.240   0.244   0.242   0.238   0.239   0.232   0.233   0.236   0.228   0.233   0.234   0.241   0.239   0.237   0.234   0.238   0.239   0.231   0.233   0.232   0.231   0.244   0.238   0.232   0.230   0.219   0.232   0.234   0.235   0.230   0.238   0.233   0.237   0.236   0.236   0.229   0.227   0.229   0.230   0.232   0.227   0.234   0.235   0.234   0.237   0.237   0.234   0.229   0.238   0.233   0.240   0.235   0.237   0.240   0.238   0.246   0.241   0.233   0.238   0.233   0.234   0.232   0.235   0.232   0.223   0.231   0.232   0.231   0.229   0.228   0.232   0.234   0.231   0.234   0.238   0.232   0.243   0.243   0.234   0.233   0.233   0.239   0.242   0.237   0.234   0.236   0.242   0.237   0.231   0.235   0.240   0.231   0.242   0.245   0.247   0.250   0.249   0.242   0.246   0.236   0.237   0.230   0.225   0.233   0.237   0.231   0.233   0.236   0.237   0.234   0.239   0.239   0.244   0.240   0.228   0.231   0.241   0.242   0.241   0.237   0.232   0.232   0.232   0.228   0.233   0.230   0.229   0.234   0.236   0.242   0.245   0.248   0.240   0.245   0.231   0.228   0.228   0.231   0.239   0.227   0.235   0.226   0.230   0.237   0.238   0.234   0.234   0.229   0.233   0.237   0.237   0.235   0.234   0.235   0.238   0.235   0.235   0.228   0.232   0.221   0.230   0.239   0.239   0.234   0.237   0.229   0.234   0.225   0.222   0.225   0.231   0.232   0.224   0.229   0.241   0.242   0.241   0.245   0.234   0.241   0.237
    38.20    0.243   0.238   0.245   0.240   0.249   0.247   0.240   0.237   0.243   0.238   0.245   0.238   0.232   0.240   0.244   0.241   0.236   0.231   0.227   0.231   0.235   0.235   0.242   0.238   0.234   0.241   0.238   0.233   0.234   0.236   0.236   0.231   0.233   0.234   0.225   0.223   0.234   0.226   0.226   0.218   0.214   0.227   0.229   0.232   0.235   0.228   0.229   0.231   0.231   0.230   0.222   0.225   0.235   0.243   0.240   0.236   0.231   0.239   0.229   0.242   0.246   0.240   0.239   0.239   0.237   0.246   0.241   0.239   0.235   0.233   0.236   0.236   0.230   0.235   0.231   0.235   0.233   0.228   0.228   0.223   0.231   0.236   0.239   0.244   0.235   0.239   0.245   0.234   0.236   0.239   0.241   0.239   0.232   0.234   0.239   0.223   0.228   0.227   0.236   0.229   0.240   0.239   0.235   0.244   0.243   0.247   0.252   0.243   0.247   0.244   0.240   0.237   0.236   0.232   0.233   0.226   0.226   0.234   0.232   0.238   0.235   0.234   0.232   0.234   0.242   0.231   0.226   0.224   0.224   0.233   0.239   0.242   0.235   0.239   0.240   0.231   0.226   0.229   0.234   0.229   0.232   0.240   0.238   0.240   0.229   0.235   0.229   0.231   0.234   0.234   0.232   0.231   0.235   0.230   0.232   0.234   0.234   0.227   0.234   0.231   0.238   0.233   0.236   0.237   0.229   0.236   0.239   0.246   0.248   0.238   0.233   0.224   0.225   0.229   0.230   0.230   0.227   0.234   0.235   0.231   0.227   0.228   0.222   0.225   0.225   0.224   0.237   0.245   0.245   0.249   0.244   0.237   0.233
    28.90    0.239   0.241   0.236   0.249   0.241   0.242   0.235   0.246   0.238   0.250   0.243   0.237   0.227   0.230   0.227   0.233   0.232   0.231   0.235   0.237   0.235   0.244   0.237   0.238   0.238   0.237   0.241   0.236   0.234   0.233   0.237   0.237   0.234   0.224   0.227   0.232   0.236   0.238   0.234   0.230   0.229   0.224   0.230   0.223   0.232   0.235   0.221   0.231   0.233   0.230   0.231   0.235   0.237   0.240   0.241   0.236   0.233   0.229   0.240   0.239   0.242   0.236   0.243   0.241   0.241   0.243   0.244   0.237   0.232   0.230   0.237   0.241   0.230   0.231   0.234   0.233   0.236   0.233   0.226   0.233   0.233   0.238   0.234   0.236   0.239   0.236   0.241   0.233   0.231   0.241   0.244   0.237   0.240   0.237   0.232   0.218   0.228   0.230   0.240   0.239   0.236   0.241   0.242   0.239   0.242   0.243   0.248   0.243   0.240   0.239   0.246   0.242   0.241   0.240   0.242   0.230   0.228   0.230   0.235   0.230   0.237   0.239   0.241   0.235   0.223   0.223   0.232   0.230   0.236   0.237   0.240   0.233   0.225   0.229   0.234   0.232   0.228   0.225   0.232   0.230   0.227   0.227   0.234   0.235   0.221   0.230   0.230   0.230   0.229   0.234   0.244   0.230   0.229   0.231   0.237   0.231   0.236   0.234   0.233   0.236   0.230   0.231   0.238   0.239   0.236   0.239   0.238   0.239   0.249   0.236   0.234   0.228   0.233   0.229   0.230   0.221   0.223   0.230   0.233   0.237   0.232   0.230   0.233   0.236   0.234   0.228   0.230   0.238   0.236   0.241   0.243   0.243   0.236
    19.60    0.229   0.239   0.247   0.249   0.248   0.245   0.245   0.242   0.242   0.250   0.238   0.236   0.221   0.226   0.226   0.231   0.233   0.231   0.232   0.236   0.243   0.235   0.239   0.240   0.244   0.239   0.240   0.236   0.232   0.239   0.233   0.240   0.233   0.235   0.236   0.238   0.232   0.231   0.237   0.240   0.230   0.226   0.223   0.231   0.229   0.230   0.226   0.236   0.233   0.234   0.233   0.232   0.242   0.244   0.233   0.230   0.230   0.236   0.236   0.243   0.238   0.242   0.236   0.246   0.250   0.248   0.235   0.236   0.227   0.231   0.235   0.241   0.231   0.234   0.236   0.232   0.228   0.222   0.233   0.234   0.236   0.235   0.243   0.241   0.233   0.231   0.230   0.241   0.237   0.243   0.238   0.234   0.235   0.230   0.229   0.217   0.221   0.227   0.233   0.234   0.231   0.238   0.238   0.240   0.245   0.232   0.241   0.243   0.241   0.241   0.250   0.254   0.253   0.250   0.237   0.230   0.230   0.226   0.228   0.230   0.236   0.239   0.236   0.229   0.230   0.226   0.229   0.233   0.236   0.242   0.248   0.240   0.234   0.230   0.232   0.230   0.228   0.230   0.230   0.227   0.235   0.232   0.241   0.238   0.228   0.228   0.226   0.234   0.228   0.234   0.235   0.227   0.221   0.224   0.231   0.239   0.227   0.227   0.230   0.233   0.231   0.237   0.239   0.238   0.234   0.233   0.238   0.235   0.243   0.239   0.240   0.232   0.227   0.232   0.228   0.221   0.221   0.227   0.236   0.231   0.236   0.236   0.237   0.236   0.238   0.228   0.226   0.228   0.241   0.235   0.234   0.242   0.241
    10.30    0.240   0.245   0.238   0.246   0.248   0.240   0.253   0.237   0.234   0.238   0.241   0.242   0.230   0.227   0.240   0.234   0.238   0.232   0.236   0.239   0.232   0.233   0.234   0.234   0.239   0.232   0.231   0.235   0.236   0.234   0.243   0.239   0.232   0.236   0.237   0.242   0.231   0.234   0.238   0.240   0.231   0.232   0.230   0.238   0.231   0.229   0.228   0.227   0.228   0.232   0.232   0.235   0.240   0.238   0.242   0.238   0.239   0.241   0.233   0.242   0.249   0.248   0.238   0.247   0.253   0.241   0.237   0.236   0.229   0.229   0.232   0.235   0.235   0.234   0.229   0.229   0.231   0.233   0.239   0.238   0.247   0.244   0.240   0.235   0.239   0.229   0.232   0.247   0.248   0.233   0.245   0.238   0.230   0.234   0.235   0.233   0.234   0.227   0.234   0.235   0.236   0.232   0.241   0.237   0.241   0.247   0.240   0.245   0.234   0.242   0.250   0.252   0.240   0.239   0.243   0.229   0.234   0.231   0.231   0.233   0.238   0.238   0.236   0.227   0.227   0.219   0.224   0.231   0.233   0.237   0.247   0.244   0.242   0.237   0.236   0.233   0.235   0.233   0.235   0.234   0.235   0.234   0.233   0.235   0.233   0.227   0.220   0.222   0.231   0.233   0.230   0.225   0.227   0.231   0.228   0.235   0.226   0.231   0.226   0.237   0.238   0.236   0.235   0.245   0.239   0.233   0.230   0.238   0.242   0.237   0.231   0.231   0.225   0.229   0.232   0.231   0.230   0.232   0.225   0.228   0.239   0.245   0.231   0.231   0.233   0.237   0.235   0.230   0.230   0.237   0.242   0.242   0.244
     1.00    0.237   0.241   0.241   0.242   0.248   0.245   0.247   0.242   0.235   0.236   0.233   0.244   0.240   0.240   0.241   0.246   0.248   0.243   0.235   0.235   0.225   0.229   0.237   0.243   0.238   0.232   0.234   0.232   0.240   0.233   0.233   0.239   0.228   0.241   0.240   0.235   0.236   0.236   0.239   0.236   0.232   0.235   0.235   0.236   0.230   0.225   0.225   0.228   0.233   0.229   0.233   0.226   0.234   0.232   0.231   0.241   0.242   0.243   0.242   0.234   0.244   0.236   0.236   0.237   0.247   0.247   0.235   0.232   0.229   0.230   0.226   0.235   0.235   0.243   0.237   0.236   0.241   0.244   0.237   0.239   0.243   0.252   0.248   0.243   0.243   0.236   0.242   0.247   0.250   0.240   0.239   0.244   0.245   0.236   0.240   0.241   0.237   0.236   0.230   0.232   0.240   0.241   0.240   0.242   0.237   0.239   0.242   0.244   0.240   0.244   0.241   0.244   0.242   0.241   0.243   0.240   0.244   0.235   0.230   0.226   0.234   0.238   0.232   0.232   0.232   0.236   0.241   0.242   0.236   0.242   0.244   0.236   0.236   0.236   0.245   0.239   0.238   0.238   0.237   0.236   0.225   0.230   0.231   0.230   0.230   0.224   0.218   0.223   0.230   0.234   0.234   0.232   0.237   0.233   0.228   0.227   0.228   0.230   0.233   0.235   0.236   0.231   0.234   0.234   0.237   0.231   0.227   0.228   0.229   0.232   0.226   0.224   0.227   0.224   0.234   0.232   0.227   0.228   0.226   0.226   0.239   0.245   0.239   0.230   0.235   0.228   0.234   0.234   0.236   0.238   0.240   0.240   0.245

   Mean standard deviation across all grid points:
      u component:    0.471 m/s
      v component:    0.393 m/s
      w component:    0.236 m/s


U-component (X) statistics from the interpolated hub point:

   Mean =   9.7063 m/s
   TI   =   5.3596 %


Processing complete.  2.11291E+05 CPU seconds used.
