
This summary file was generated by TurbSim (from OpenFAST-v3.5.3) on 20-Apr-2025 at 05:15:54.


Runtime Options:

**********  Random seed #1
    RANLUX  Type of random number generator
         F  Output binary HH turbulence parameters?
         F  Output formatted turbulence parameters?
         F  Output AeroDyn HH files?
         T  Output AeroDyn FF files?
         F  Output BLADED FF files?
         F  Output tower data?
         F  Output HAWC FF files?
         F  Output formatted FF files?
         T  Output coherent turbulence time step file?
 0 -  NONE  IEC turbulence models scaled to exact specified standard deviation


Turbine/Model Specifications:

        37  Vertical grid-point matrix dimension
        35  Horizontal grid-point matrix dimension
     0.250  Time step [seconds]
   900.000  Analysis time [seconds]
   900.000  Usable output time [seconds]
    89.350  Hub height [m]
   167.400  Grid height [m]
   158.100  Grid width [m]
     0.000  Vertical flow angle [degrees]
     0.000  Horizontal flow angle [degrees]


Meteorological Boundary Conditions:

    TIMESR  User-input time series spectral model
       N/A  IEC standard
       N/A  IEC turbulence characteristic
       N/A  IEC turbulence type
       N/A  IEC Extreme Turbulence Model (ETM) "c" parameter [m/s]
       PL   Wind profile type
    90.000  Reference height [m]
    10.000  Reference wind speed [m/s]
       N/A  Jet height [m]
     0.120  Power law exponent
     0.030  Surface roughness length [m]


Non-IEC Meteorological Boundary Conditions:

    45.000  Site latitude [degrees]
     0.050  Gradient Richardson number
     0.480  Friction or shear velocity [m/s]
       N/A  Mixing layer depth [m]
       N/A  Mean hub u'w' Reynolds stress
       N/A  Mean hub u'v' Reynolds stress
       N/A  Mean hub v'w' Reynolds stress


Spatial Coherence Models:

       IEC  u-component coherence model
       IEC  v-component coherence model
       IEC  w-component coherence model
(   12.000, 0.353E-03)  u-component coherence parameters
(   12.000, 0.353E-03)  v-component coherence parameters
(   12.000, 0.353E-03)  w-component coherence parameters
       N/A  Coherence exponent


Coherent Turbulence Scaling Parameters:

.\EventData
            Name of the path containing the coherent turbulence data files
       les  Type of coherent turbulence data files
     1.000  Disturbance scale (ratio of wave height to rotor diameter)
     0.500  Fractional location of tower centerline from right
     0.500  Fractional location of hub height from the bottom of the dataset
    30.000  Minimum start time for coherent structures [seconds]


Profiles from User-Defined Time-Series Input:

  Height   Wind Speed   Horizontal Angle   Vertical Angle
   (m)        (m/s)          (deg)              (deg)    
  ------   ----------   ----------------   --------------
   94.00      10.00          -0.63                0.00


You have requested that the following file(s) be generated:

   /kfs3/scratch/agupta/Projects/RL_Incubator/FinalRuns_Veer/Seed4/./FFSim_Seed4/Cond00_v10.0_PL0.12_TI7.5/Case1_wdirp02/Seed_2/TurbSim/HighT13.bts (AeroDyn/TurbSim full-field wind file)


Turbulence Simulation Scaling Parameter Summary:

   Turbulence model used                            =  User-input time series
   Gradient Richardson number                       =    0.050
   Monin-Obukhov (M-O) z/L parameter                =    0.067
   Monin-Obukhov (M-O) length scale                 = 1340.250 m
   Mean wind speed at hub height                    =    9.991 m/s

   Wind profile type                                =  Power law
   Power law exponent                               =    0.120
   Mean shear across rotor disk                     =    0.019 (m/s)/m
   Assumed rotor diameter                           =  158.100 m
   Surface roughness length                         =    0.030 m

   Nyquist frequency of turbulent wind field        =    2.000 Hz

   Number of time steps in the FFT                  =     3600
   Number of time steps output                      =     3600
   Number of points simulated                       =     1296


Mean Flow Angles:

   Vertical   =   0.0 degrees
   Horizontal =   0.0 degrees

Mean Wind Speed Profile:

   Height    Wind Speed   Horizontal Angle  Vertical Angle  U-comp (X)   V-comp (Y)   W-comp (Z)
     (m)        (m/s)         (degrees)       (degrees)       (m/s)        (m/s)        (m/s)   
   ------    ----------   ----------------  --------------  ----------   ----------   ----------
    168.4       10.78            0.00            0.00         10.78         0.00         0.00
    163.7       10.74            0.00            0.00         10.74         0.00         0.00
    159.1       10.71            0.00            0.00         10.71         0.00         0.00
    154.4       10.67            0.00            0.00         10.67         0.00         0.00
    149.8       10.63            0.00            0.00         10.63         0.00         0.00
    145.1       10.59            0.00            0.00         10.59         0.00         0.00
    140.5       10.55            0.00            0.00         10.55         0.00         0.00
    135.8       10.51            0.00            0.00         10.51         0.00         0.00
    131.2       10.46            0.00            0.00         10.46         0.00         0.00
    126.5       10.42            0.00            0.00         10.42         0.00         0.00
    121.9       10.37            0.00            0.00         10.37         0.00         0.00
    117.2       10.32            0.00            0.00         10.32         0.00         0.00
    112.6       10.27            0.00            0.00         10.27         0.00         0.00
    107.9       10.22            0.00            0.00         10.22         0.00         0.00
    103.3       10.17            0.00            0.00         10.17         0.00         0.00
     98.6       10.11            0.00            0.00         10.11         0.00         0.00
     94.0       10.05            0.00            0.00         10.05         0.00         0.00
     89.3        9.99            0.00            0.00          9.99         0.00         0.00
     84.7        9.93            0.00            0.00          9.93         0.00         0.00
     80.0        9.86            0.00            0.00          9.86         0.00         0.00
     75.4        9.79            0.00            0.00          9.79         0.00         0.00
     70.7        9.72            0.00            0.00          9.72         0.00         0.00
     66.1        9.64            0.00            0.00          9.64         0.00         0.00
     61.4        9.55            0.00            0.00          9.55         0.00         0.00
     56.8        9.46            0.00            0.00          9.46         0.00         0.00
     52.1        9.37            0.00            0.00          9.37         0.00         0.00
     47.5        9.26            0.00            0.00          9.26         0.00         0.00
     42.8        9.15            0.00            0.00          9.15         0.00         0.00
     38.2        9.02            0.00            0.00          9.02         0.00         0.00
     33.5        8.88            0.00            0.00          8.88         0.00         0.00
     28.9        8.73            0.00            0.00          8.73         0.00         0.00
     24.2        8.54            0.00            0.00          8.54         0.00         0.00
     19.6        8.33            0.00            0.00          8.33         0.00         0.00
     14.9        8.06            0.00            0.00          8.06         0.00         0.00
     10.3        7.71            0.00            0.00          7.71         0.00         0.00
      5.6        7.17            0.00            0.00          7.17         0.00         0.00
      1.0        5.83            0.00            0.00          5.83         0.00         0.00


Harvested Random Seeds after Generation of the Random Numbers:

     65026800 K 1
            0 K 2


Hub-Height Simulated Turbulence Statistical Summary:

   Type of Wind        Min (m/s)   Mean (m/s)    Max (m/s)  Sigma (m/s)       TI (%)
   ----------------    ---------   ----------    ---------  -----------       ------
   Longitudinal (u)         7.98         9.99        11.75        0.726        7.268
   Lateral (v)             -1.93         0.00         2.00        0.622        6.226
   Vertical (w)            -1.36        -0.00         1.40        0.354        3.540
   U component              7.98         9.99        11.75        0.726        7.268
   V component             -1.93         0.00         2.00        0.622        6.226
   W component             -1.36        -0.00         1.40        0.354        3.540
   Horizontal (U&V)         7.98        10.01        11.79        0.725        7.240
   Total                    7.99        10.02        11.79        0.725        7.235

                       Min Reynolds     Mean Reynolds    Max Reynolds    Correlation
   Product             Stress (m/s)^2   Stress (m/s)^2   Stress (m/s)^2  Coefficient
   ----------------    --------------   --------------   --------------  -----------
   u'w'                     -1.263             0.031             1.310         0.119
   u'v'                     -1.855            -0.018             2.429        -0.039
   v'w'                     -1.243             0.003             1.902         0.014


   Friction Velocity (Ustar)  =      0.175 m/s
   Maximum Instantaneous TKE  =      3.037 (m/s)^2
   Maximum Instantaneous CTKE =      1.580 (m/s)^2


Grid Point Variance Summary:

   Y-coord  -79.05  -74.40  -69.75  -65.10  -60.45  -55.80  -51.15  -46.50  -41.85  -37.20  -32.55  -27.90  -23.25  -18.60  -13.95   -9.30   -4.65    0.00    4.65    9.30   13.95   18.60   23.25   27.90   32.55   37.20   41.85   46.50   51.15   55.80   60.45   65.10   69.75   74.40   79.05

   Height   Standard deviation at grid points for the u component:
   168.40    0.672   0.693   0.743   0.763   0.715   0.729   0.707   0.652   0.605   0.615   0.657   0.670   0.631   0.611   0.555   0.595   0.587   0.584   0.635   0.708   0.696   0.762   0.720   0.736   0.705   0.755   0.764   0.756   0.730   0.726   0.773   0.699   0.641   0.609   0.651
   163.75    0.684   0.713   0.728   0.757   0.701   0.696   0.713   0.622   0.627   0.627   0.650   0.600   0.619   0.584   0.553   0.567   0.577   0.580   0.617   0.669   0.692   0.716   0.746   0.702   0.694   0.703   0.741   0.760   0.784   0.783   0.737   0.717   0.691   0.660   0.655
   159.10    0.696   0.676   0.704   0.697   0.719   0.695   0.702   0.630   0.640   0.605   0.617   0.633   0.626   0.561   0.546   0.540   0.513   0.566   0.602   0.637   0.691   0.724   0.747   0.722   0.708   0.715   0.740   0.784   0.793   0.741   0.673   0.666   0.638   0.643   0.683
   154.45    0.709   0.722   0.710   0.710   0.752   0.747   0.663   0.631   0.669   0.686   0.660   0.623   0.606   0.577   0.580   0.567   0.564   0.581   0.556   0.605   0.711   0.694   0.707   0.693   0.699   0.694   0.716   0.724   0.758   0.730   0.675   0.620   0.640   0.591   0.634
   149.80    0.736   0.755   0.784   0.787   0.721   0.732   0.730   0.685   0.662   0.692   0.738   0.666   0.598   0.598   0.602   0.616   0.593   0.579   0.571   0.626   0.694   0.658   0.657   0.674   0.681   0.665   0.657   0.691   0.687   0.690   0.675   0.616   0.595   0.634   0.590
   145.15    0.769   0.735   0.771   0.769   0.750   0.749   0.755   0.719   0.727   0.707   0.714   0.698   0.662   0.667   0.625   0.645   0.611   0.624   0.610   0.591   0.634   0.634   0.583   0.629   0.634   0.667   0.677   0.691   0.642   0.672   0.664   0.602   0.615   0.598   0.597
   140.50    0.698   0.709   0.716   0.731   0.787   0.782   0.766   0.722   0.737   0.721   0.716   0.719   0.674   0.674   0.650   0.621   0.611   0.652   0.658   0.675   0.623   0.643   0.645   0.625   0.659   0.684   0.659   0.672   0.638   0.674   0.690   0.653   0.617   0.658   0.618
   135.85    0.696   0.720   0.737   0.737   0.728   0.806   0.764   0.721   0.690   0.681   0.672   0.692   0.699   0.678   0.673   0.627   0.632   0.670   0.655   0.704   0.725   0.697   0.685   0.735   0.698   0.652   0.672   0.641   0.611   0.650   0.640   0.643   0.644   0.624   0.626
   131.20    0.748   0.725   0.716   0.710   0.744   0.758   0.777   0.786   0.662   0.641   0.660   0.652   0.613   0.640   0.612   0.593   0.631   0.676   0.655   0.690   0.701   0.680   0.694   0.735   0.671   0.685   0.677   0.649   0.630   0.647   0.641   0.611   0.610   0.592   0.623
   126.55    0.751   0.752   0.722   0.696   0.694   0.720   0.727   0.741   0.692   0.647   0.645   0.682   0.641   0.630   0.600   0.605   0.626   0.646   0.651   0.686   0.653   0.672   0.697   0.707   0.674   0.651   0.624   0.664   0.647   0.625   0.672   0.655   0.642   0.631   0.609
   121.90    0.709   0.737   0.685   0.645   0.622   0.683   0.678   0.729   0.726   0.662   0.639   0.654   0.650   0.641   0.598   0.618   0.668   0.639   0.688   0.716   0.665   0.665   0.679   0.652   0.653   0.657   0.659   0.600   0.633   0.608   0.691   0.708   0.678   0.628   0.640
   117.25    0.743   0.722   0.691   0.682   0.657   0.651   0.688   0.712   0.718   0.680   0.676   0.685   0.650   0.597   0.621   0.598   0.604   0.653   0.699   0.691   0.641   0.652   0.654   0.672   0.700   0.683   0.638   0.599   0.577   0.634   0.654   0.696   0.715   0.697   0.668
   112.60    0.737   0.683   0.631   0.636   0.622   0.664   0.667   0.667   0.708   0.670   0.688   0.661   0.657   0.638   0.618   0.666   0.621   0.653   0.662   0.631   0.618   0.655   0.606   0.629   0.674   0.679   0.632   0.641   0.607   0.596   0.651   0.699   0.726   0.708   0.696
   107.95    0.677   0.680   0.647   0.611   0.628   0.632   0.629   0.643   0.708   0.699   0.714   0.659   0.617   0.672   0.663   0.681   0.615   0.603   0.585   0.600   0.601   0.635   0.588   0.628   0.654   0.739   0.708   0.713   0.632   0.606   0.621   0.692   0.755   0.759   0.692
   103.30    0.678   0.673   0.661   0.688   0.672   0.672   0.676   0.675   0.713   0.700   0.704   0.660   0.691   0.663   0.702   0.654   0.667   0.658   0.600   0.600   0.582   0.602   0.643   0.628   0.687   0.691   0.639   0.671   0.652   0.632   0.693   0.697   0.740   0.769   0.692
    98.65    0.723   0.680   0.680   0.671   0.686   0.691   0.706   0.711   0.718   0.737   0.678   0.720   0.724   0.670   0.666   0.656   0.628   0.663   0.624   0.650   0.609   0.573   0.640   0.616   0.680   0.671   0.621   0.645   0.647   0.680   0.676   0.700   0.716   0.679   0.661
    94.00    0.692   0.662   0.686   0.684   0.719   0.750   0.702   0.683   0.679   0.748   0.702   0.733   0.764   0.727   0.705   0.680   0.678   0.682   0.645   0.638   0.615   0.606   0.636   0.654   0.647   0.604   0.677   0.662   0.713   0.707   0.677   0.704   0.685   0.692   0.694
    89.35    0.671   0.629   0.682   0.654   0.687   0.741   0.701   0.703   0.722   0.754   0.702   0.716   0.751   0.710   0.724   0.730   0.764   0.726   0.685   0.674   0.649   0.654   0.642   0.639   0.654   0.653   0.664   0.672   0.670   0.681   0.730   0.731   0.723   0.670   0.729
    84.70    0.653   0.614   0.660   0.660   0.700   0.712   0.695   0.671   0.703   0.750   0.699   0.712   0.756   0.793   0.750   0.745   0.740   0.720   0.692   0.714   0.697   0.628   0.650   0.651   0.667   0.656   0.661   0.674   0.729   0.743   0.753   0.730   0.691   0.720   0.728
    80.05    0.671   0.644   0.655   0.655   0.711   0.737   0.755   0.714   0.702   0.709   0.714   0.703   0.739   0.770   0.755   0.792   0.777   0.738   0.710   0.757   0.676   0.685   0.701   0.706   0.658   0.684   0.680   0.704   0.704   0.717   0.761   0.735   0.743   0.715   0.703
    75.40    0.680   0.679   0.653   0.707   0.692   0.720   0.734   0.730   0.741   0.728   0.746   0.741   0.747   0.773   0.790   0.803   0.777   0.701   0.725   0.733   0.708   0.775   0.743   0.733   0.754   0.710   0.717   0.724   0.708   0.731   0.767   0.766   0.726   0.748   0.745
    70.75    0.770   0.727   0.669   0.679   0.711   0.712   0.729   0.710   0.748   0.691   0.696   0.705   0.763   0.780   0.793   0.752   0.773   0.734   0.730   0.733   0.695   0.723   0.735   0.745   0.737   0.751   0.727   0.738   0.736   0.775   0.796   0.770   0.760   0.746   0.775
    66.10    0.781   0.760   0.692   0.692   0.673   0.685   0.710   0.687   0.720   0.678   0.690   0.694   0.761   0.772   0.739   0.729   0.714   0.722   0.639   0.649   0.689   0.696   0.660   0.701   0.736   0.733   0.735   0.745   0.793   0.792   0.828   0.812   0.751   0.734   0.755
    61.45    0.724   0.756   0.724   0.709   0.712   0.682   0.700   0.712   0.697   0.703   0.696   0.737   0.738   0.725   0.710   0.692   0.714   0.718   0.711   0.710   0.699   0.697   0.702   0.693   0.703   0.715   0.754   0.707   0.768   0.828   0.801   0.806   0.754   0.749   0.741
    56.80    0.767   0.721   0.764   0.748   0.735   0.723   0.674   0.709   0.714   0.695   0.713   0.688   0.665   0.694   0.695   0.696   0.689   0.738   0.697   0.719   0.748   0.720   0.726   0.713   0.670   0.715   0.720   0.719   0.756   0.796   0.797   0.776   0.723   0.778   0.744
    52.15    0.829   0.777   0.759   0.792   0.768   0.765   0.657   0.728   0.683   0.643   0.682   0.719   0.727   0.676   0.668   0.683   0.677   0.691   0.694   0.723   0.692   0.734   0.735   0.763   0.690   0.714   0.695   0.655   0.725   0.735   0.795   0.756   0.751   0.756   0.749
    47.50    0.785   0.764   0.758   0.806   0.818   0.810   0.703   0.738   0.686   0.668   0.666   0.665   0.700   0.722   0.695   0.714   0.707   0.698   0.687   0.673   0.713   0.702   0.750   0.764   0.702   0.722   0.700   0.681   0.709   0.737   0.769   0.800   0.764   0.776   0.764
    42.85    0.777   0.728   0.757   0.834   0.806   0.700   0.691   0.666   0.706   0.669   0.654   0.671   0.707   0.674   0.710   0.665   0.655   0.689   0.651   0.676   0.699   0.700   0.711   0.744   0.759   0.722   0.700   0.704   0.694   0.723   0.713   0.762   0.790   0.768   0.781
    38.20    0.752   0.732   0.754   0.778   0.770   0.722   0.707   0.687   0.674   0.676   0.675   0.656   0.687   0.670   0.674   0.690   0.669   0.710   0.696   0.642   0.640   0.645   0.674   0.710   0.704   0.697   0.715   0.709   0.733   0.688   0.673   0.702   0.715   0.721   0.757
    33.55    0.742   0.726   0.724   0.731   0.735   0.746   0.696   0.706   0.705   0.675   0.691   0.642   0.639   0.658   0.641   0.685   0.681   0.672   0.672   0.654   0.648   0.589   0.638   0.630   0.703   0.720   0.748   0.739   0.708   0.724   0.647   0.667   0.709   0.718   0.738
    28.90    0.679   0.698   0.738   0.749   0.711   0.674   0.666   0.678   0.709   0.664   0.622   0.617   0.657   0.656   0.629   0.662   0.679   0.694   0.712   0.678   0.666   0.657   0.644   0.627   0.687   0.754   0.713   0.698   0.736   0.699   0.693   0.675   0.749   0.737   0.772
    24.25    0.677   0.651   0.723   0.725   0.755   0.669   0.689   0.701   0.674   0.686   0.639   0.668   0.674   0.688   0.653   0.680   0.677   0.705   0.718   0.701   0.690   0.654   0.699   0.665   0.709   0.744   0.711   0.736   0.746   0.744   0.694   0.717   0.734   0.732   0.731
    19.60    0.661   0.705   0.750   0.702   0.720   0.718   0.724   0.671   0.651   0.659   0.614   0.635   0.627   0.653   0.690   0.689   0.663   0.641   0.674   0.701   0.660   0.664   0.679   0.676   0.682   0.699   0.669   0.709   0.726   0.681   0.711   0.708   0.738   0.720   0.734
    14.95    0.658   0.704   0.743   0.746   0.754   0.720   0.677   0.671   0.612   0.617   0.613   0.640   0.655   0.666   0.645   0.680   0.661   0.648   0.679   0.711   0.686   0.697   0.634   0.667   0.677   0.710   0.697   0.681   0.700   0.723   0.695   0.750   0.710   0.736   0.742
    10.30    0.713   0.716   0.727   0.725   0.733   0.689   0.683   0.697   0.705   0.673   0.656   0.704   0.643   0.637   0.628   0.694   0.638   0.606   0.644   0.680   0.720   0.721   0.648   0.649   0.681   0.741   0.672   0.721   0.730   0.722   0.734   0.760   0.738   0.721   0.735
     5.65    0.729   0.700   0.696   0.710   0.715   0.706   0.672   0.676   0.682   0.683   0.680   0.693   0.661   0.692   0.646   0.661   0.668   0.631   0.644   0.625   0.705   0.730   0.667   0.646   0.715   0.742   0.731   0.770   0.798   0.734   0.729   0.771   0.716   0.696   0.684
     1.00    0.737   0.706   0.732   0.751   0.712   0.703   0.702   0.688   0.669   0.654   0.690   0.675   0.702   0.647   0.659   0.672   0.629   0.641   0.603   0.635   0.685   0.673   0.682   0.685   0.747   0.742   0.773   0.817   0.753   0.723   0.719   0.752   0.693   0.703   0.703

   Height   Standard deviation at grid points for the v component:
   168.40    0.619   0.613   0.592   0.572   0.568   0.565   0.562   0.549   0.537   0.591   0.600   0.595   0.585   0.605   0.559   0.573   0.600   0.589   0.612   0.630   0.649   0.619   0.638   0.629   0.636   0.631   0.615   0.616   0.591   0.563   0.577   0.553   0.548   0.554   0.497
   163.75    0.557   0.587   0.616   0.577   0.570   0.554   0.525   0.528   0.572   0.589   0.597   0.610   0.600   0.588   0.596   0.584   0.587   0.595   0.612   0.636   0.626   0.606   0.593   0.608   0.600   0.595   0.604   0.614   0.603   0.608   0.588   0.559   0.524   0.536   0.538
   159.10    0.581   0.592   0.594   0.593   0.561   0.566   0.553   0.568   0.563   0.601   0.603   0.592   0.580   0.586   0.607   0.597   0.592   0.583   0.575   0.603   0.595   0.591   0.608   0.608   0.671   0.605   0.601   0.640   0.617   0.639   0.569   0.551   0.561   0.563   0.558
   154.45    0.558   0.562   0.611   0.567   0.577   0.574   0.599   0.588   0.572   0.612   0.602   0.622   0.591   0.599   0.575   0.564   0.611   0.622   0.620   0.589   0.571   0.586   0.595   0.619   0.652   0.641   0.650   0.638   0.630   0.634   0.605   0.550   0.561   0.561   0.576
   149.80    0.540   0.546   0.592   0.600   0.589   0.579   0.588   0.566   0.526   0.608   0.611   0.632   0.621   0.586   0.562   0.573   0.614   0.627   0.619   0.614   0.565   0.552   0.593   0.611   0.628   0.632   0.645   0.653   0.659   0.620   0.591   0.576   0.580   0.598   0.587
   145.15    0.548   0.555   0.598   0.579   0.553   0.558   0.537   0.539   0.561   0.613   0.618   0.630   0.602   0.570   0.593   0.566   0.573   0.624   0.604   0.588   0.541   0.568   0.595   0.605   0.620   0.626   0.623   0.604   0.624   0.634   0.604   0.579   0.593   0.587   0.634
   140.50    0.580   0.573   0.592   0.569   0.556   0.546   0.556   0.544   0.581   0.589   0.622   0.619   0.575   0.559   0.566   0.574   0.596   0.619   0.604   0.610   0.560   0.592   0.652   0.645   0.611   0.639   0.627   0.597   0.613   0.617   0.596   0.629   0.608   0.605   0.621
   135.85    0.611   0.600   0.570   0.585   0.558   0.556   0.554   0.589   0.599   0.597   0.628   0.584   0.575   0.541   0.565   0.594   0.596   0.618   0.603   0.585   0.578   0.581   0.591   0.614   0.618   0.608   0.596   0.599   0.614   0.623   0.597   0.596   0.622   0.629   0.633
   131.20    0.615   0.606   0.594   0.592   0.577   0.559   0.588   0.591   0.589   0.580   0.565   0.544   0.564   0.581   0.572   0.583   0.623   0.651   0.598   0.576   0.575   0.586   0.567   0.604   0.608   0.581   0.568   0.616   0.588   0.587   0.593   0.596   0.580   0.597   0.578
   126.55    0.588   0.629   0.598   0.600   0.571   0.565   0.568   0.578   0.568   0.553   0.552   0.564   0.556   0.573   0.572   0.592   0.626   0.631   0.585   0.601   0.583   0.588   0.601   0.598   0.589   0.599   0.602   0.596   0.585   0.610   0.612   0.596   0.565   0.537   0.552
   121.90    0.624   0.619   0.611   0.605   0.591   0.576   0.578   0.586   0.582   0.563   0.567   0.560   0.540   0.574   0.587   0.568   0.615   0.625   0.601   0.639   0.632   0.613   0.632   0.588   0.556   0.569   0.562   0.557   0.585   0.597   0.588   0.569   0.565   0.536   0.555
   117.25    0.568   0.560   0.572   0.578   0.563   0.597   0.598   0.611   0.566   0.534   0.563   0.577   0.594   0.569   0.541   0.576   0.621   0.606   0.646   0.682   0.619   0.618   0.599   0.574   0.588   0.572   0.574   0.554   0.597   0.607   0.581   0.573   0.554   0.533   0.552
   112.60    0.544   0.539   0.562   0.559   0.523   0.556   0.597   0.585   0.569   0.571   0.587   0.556   0.569   0.585   0.583   0.575   0.612   0.605   0.627   0.686   0.647   0.645   0.613   0.556   0.553   0.549   0.564   0.569   0.566   0.579   0.559   0.558   0.508   0.506   0.525
   107.95    0.550   0.560   0.542   0.529   0.568   0.558   0.567   0.594   0.601   0.614   0.606   0.554   0.558   0.579   0.619   0.612   0.637   0.637   0.639   0.640   0.658   0.583   0.583   0.597   0.588   0.532   0.550   0.524   0.536   0.564   0.543   0.556   0.524   0.541   0.528
   103.30    0.546   0.549   0.557   0.581   0.563   0.592   0.576   0.577   0.589   0.605   0.598   0.573   0.572   0.580   0.613   0.604   0.639   0.594   0.614   0.635   0.633   0.598   0.600   0.599   0.599   0.558   0.556   0.546   0.529   0.527   0.563   0.579   0.539   0.553   0.541
    98.65    0.553   0.555   0.583   0.575   0.566   0.602   0.588   0.575   0.602   0.589   0.573   0.577   0.577   0.597   0.608   0.619   0.643   0.624   0.603   0.613   0.632   0.637   0.571   0.579   0.575   0.573   0.529   0.524   0.528   0.530   0.519   0.540   0.522   0.563   0.549
    94.00    0.577   0.573   0.611   0.591   0.604   0.580   0.577   0.603   0.584   0.563   0.588   0.577   0.610   0.638   0.626   0.641   0.649   0.592   0.589   0.557   0.609   0.614   0.589   0.536   0.529   0.546   0.526   0.500   0.506   0.512   0.504   0.543   0.537   0.533   0.543
    89.35    0.611   0.603   0.585   0.594   0.624   0.600   0.607   0.598   0.598   0.565   0.571   0.569   0.600   0.619   0.640   0.644   0.634   0.622   0.591   0.584   0.612   0.600   0.580   0.527   0.516   0.518   0.522   0.523   0.525   0.524   0.520   0.543   0.542   0.545   0.595
    84.70    0.615   0.625   0.608   0.605   0.610   0.589   0.613   0.593   0.569   0.541   0.557   0.584   0.592   0.584   0.643   0.642   0.632   0.629   0.586   0.600   0.616   0.600   0.552   0.522   0.550   0.514   0.532   0.530   0.509   0.496   0.471   0.524   0.530   0.539   0.570
    80.05    0.601   0.598   0.579   0.572   0.574   0.571   0.584   0.569   0.591   0.545   0.559   0.592   0.591   0.599   0.631   0.625   0.624   0.607   0.583   0.613   0.572   0.573   0.543   0.540   0.534   0.516   0.545   0.524   0.508   0.502   0.466   0.509   0.523   0.521   0.539
    75.40    0.598   0.589   0.561   0.556   0.560   0.578   0.582   0.576   0.563   0.603   0.600   0.605   0.578   0.551   0.589   0.602   0.612   0.619   0.608   0.662   0.623   0.598   0.564   0.537   0.538   0.528   0.565   0.552   0.522   0.521   0.497   0.522   0.507   0.526   0.547
    70.75    0.598   0.605   0.552   0.545   0.547   0.555   0.550   0.572   0.558   0.614   0.612   0.609   0.588   0.578   0.584   0.594   0.609   0.615   0.608   0.635   0.613   0.583   0.607   0.569   0.530   0.557   0.565   0.556   0.539   0.520   0.512   0.521   0.512   0.534   0.556
    66.10    0.569   0.583   0.591   0.557   0.564   0.579   0.578   0.573   0.583   0.610   0.628   0.605   0.580   0.590   0.593   0.580   0.613   0.589   0.590   0.586   0.601   0.611   0.596   0.574   0.573   0.563   0.544   0.550   0.524   0.537   0.520   0.512   0.513   0.531   0.540
    61.45    0.591   0.589   0.590   0.601   0.594   0.617   0.605   0.574   0.574   0.581   0.569   0.583   0.565   0.571   0.546   0.569   0.569   0.573   0.586   0.571   0.582   0.584   0.589   0.567   0.576   0.544   0.542   0.539   0.527   0.538   0.521   0.495   0.509   0.512   0.527
    56.80    0.613   0.594   0.598   0.621   0.607   0.619   0.600   0.602   0.589   0.576   0.545   0.540   0.562   0.550   0.543   0.574   0.568   0.534   0.552   0.547   0.584   0.585   0.608   0.562   0.562   0.545   0.540   0.535   0.534   0.526   0.483   0.487   0.499   0.516   0.550
    52.15    0.576   0.578   0.618   0.626   0.622   0.611   0.592   0.548   0.553   0.552   0.544   0.517   0.538   0.541   0.541   0.540   0.556   0.531   0.547   0.571   0.591   0.600   0.581   0.572   0.573   0.558   0.563   0.539   0.525   0.524   0.482   0.486   0.473   0.505   0.523
    47.50    0.549   0.580   0.602   0.594   0.607   0.592   0.553   0.532   0.546   0.545   0.556   0.552   0.572   0.543   0.567   0.559   0.550   0.563   0.536   0.577   0.594   0.610   0.596   0.567   0.564   0.569   0.556   0.552   0.559   0.545   0.525   0.521   0.521   0.537   0.555
    42.85    0.567   0.563   0.576   0.583   0.570   0.602   0.596   0.544   0.556   0.567   0.564   0.541   0.593   0.568   0.590   0.548   0.537   0.541   0.554   0.560   0.621   0.629   0.608   0.560   0.559   0.544   0.529   0.516   0.545   0.561   0.537   0.529   0.529   0.522   0.551
    38.20    0.579   0.554   0.572   0.576   0.550   0.592   0.578   0.575   0.553   0.534   0.546   0.556   0.580   0.544   0.576   0.542   0.532   0.542   0.558   0.550   0.572   0.587   0.584   0.559   0.550   0.561   0.529   0.544   0.539   0.537   0.534   0.544   0.563   0.548   0.541
    33.55    0.565   0.542   0.557   0.553   0.581   0.593   0.590   0.578   0.560   0.556   0.543   0.551   0.556   0.530   0.537   0.547   0.548   0.544   0.536   0.573   0.565   0.584   0.553   0.540   0.530   0.551   0.554   0.550   0.548   0.556   0.518   0.542   0.553   0.546   0.563
    28.90    0.532   0.543   0.555   0.560   0.583   0.571   0.591   0.574   0.576   0.563   0.569   0.563   0.563   0.543   0.549   0.559   0.526   0.550   0.545   0.521   0.576   0.577   0.565   0.571   0.553   0.537   0.577   0.565   0.568   0.593   0.600   0.554   0.563   0.558   0.555
    24.25    0.532   0.522   0.547   0.568   0.564   0.567   0.570   0.580   0.586   0.574   0.585   0.582   0.583   0.590   0.557   0.562   0.536   0.505   0.533   0.535   0.548   0.555   0.570   0.574   0.575   0.552   0.563   0.591   0.584   0.594   0.584   0.598   0.545   0.579   0.565
    19.60    0.523   0.554   0.526   0.554   0.561   0.583   0.607   0.593   0.605   0.602   0.616   0.605   0.594   0.582   0.582   0.571   0.550   0.517   0.541   0.541   0.574   0.556   0.581   0.557   0.557   0.543   0.584   0.591   0.579   0.544   0.565   0.587   0.599   0.593   0.569
    14.95    0.556   0.573   0.548   0.547   0.583   0.613   0.615   0.635   0.609   0.624   0.596   0.590   0.613   0.585   0.594   0.601   0.612   0.565   0.571   0.561   0.566   0.583   0.591   0.540   0.543   0.549   0.556   0.569   0.578   0.590   0.614   0.630   0.633   0.594   0.603
    10.30    0.568   0.551   0.564   0.559   0.580   0.607   0.609   0.619   0.627   0.600   0.584   0.572   0.600   0.609   0.601   0.586   0.596   0.573   0.557   0.567   0.599   0.589   0.570   0.568   0.590   0.585   0.603   0.609   0.617   0.602   0.609   0.594   0.641   0.604   0.618
     5.65    0.560   0.573   0.575   0.563   0.590   0.632   0.612   0.616   0.628   0.608   0.564   0.540   0.595   0.611   0.607   0.612   0.633   0.599   0.581   0.555   0.586   0.600   0.604   0.564   0.594   0.611   0.584   0.592   0.606   0.603   0.608   0.614   0.622   0.595   0.577
     1.00    0.597   0.573   0.591   0.585   0.615   0.619   0.594   0.602   0.601   0.575   0.605   0.571   0.595   0.605   0.626   0.641   0.642   0.623   0.628   0.569   0.590   0.592   0.623   0.609   0.611   0.589   0.609   0.591   0.591   0.607   0.576   0.598   0.599   0.602   0.596

   Height   Standard deviation at grid points for the w component:
   168.40    0.370   0.359   0.359   0.360   0.351   0.341   0.336   0.349   0.357   0.362   0.353   0.350   0.351   0.353   0.370   0.363   0.345   0.347   0.354   0.336   0.337   0.331   0.343   0.359   0.345   0.335   0.340   0.334   0.343   0.347   0.353   0.351   0.341   0.346   0.360
   163.75    0.353   0.358   0.366   0.367   0.347   0.353   0.352   0.373   0.356   0.357   0.367   0.355   0.352   0.365   0.367   0.372   0.355   0.360   0.361   0.355   0.359   0.345   0.348   0.342   0.341   0.342   0.344   0.344   0.338   0.343   0.359   0.348   0.351   0.367   0.353
   159.10    0.345   0.351   0.360   0.365   0.347   0.355   0.365   0.370   0.365   0.367   0.365   0.355   0.362   0.364   0.373   0.374   0.375   0.371   0.374   0.379   0.352   0.351   0.353   0.345   0.343   0.356   0.348   0.349   0.355   0.353   0.350   0.361   0.353   0.358   0.353
   154.45    0.350   0.355   0.367   0.355   0.360   0.358   0.371   0.355   0.361   0.370   0.359   0.374   0.355   0.374   0.373   0.389   0.392   0.388   0.384   0.376   0.367   0.354   0.341   0.348   0.332   0.342   0.344   0.341   0.362   0.356   0.357   0.369   0.366   0.360   0.358
   149.80    0.338   0.349   0.359   0.358   0.358   0.357   0.361   0.356   0.372   0.369   0.353   0.364   0.372   0.367   0.376   0.376   0.391   0.397   0.373   0.365   0.362   0.364   0.347   0.347   0.330   0.349   0.354   0.367   0.347   0.362   0.368   0.381   0.363   0.363   0.359
   145.15    0.346   0.358   0.358   0.355   0.367   0.354   0.353   0.351   0.367   0.367   0.355   0.358   0.387   0.372   0.370   0.383   0.390   0.387   0.362   0.363   0.348   0.355   0.355   0.352   0.347   0.333   0.349   0.349   0.351   0.369   0.381   0.385   0.369   0.373   0.381
   140.50    0.348   0.346   0.355   0.374   0.368   0.351   0.350   0.350   0.350   0.357   0.354   0.364   0.367   0.359   0.357   0.376   0.388   0.379   0.381   0.353   0.362   0.356   0.353   0.339   0.347   0.338   0.337   0.347   0.348   0.357   0.364   0.359   0.358   0.364   0.371
   135.85    0.347   0.355   0.357   0.371   0.365   0.355   0.358   0.349   0.351   0.347   0.358   0.362   0.362   0.347   0.359   0.360   0.384   0.364   0.368   0.354   0.343   0.339   0.337   0.349   0.340   0.338   0.345   0.344   0.361   0.363   0.352   0.355   0.359   0.354   0.354
   131.20    0.357   0.374   0.378   0.371   0.378   0.366   0.353   0.349   0.356   0.367   0.351   0.358   0.364   0.364   0.343   0.361   0.376   0.363   0.362   0.362   0.343   0.340   0.330   0.334   0.335   0.342   0.347   0.351   0.378   0.373   0.374   0.357   0.359   0.354   0.360
   126.55    0.371   0.383   0.378   0.372   0.371   0.361   0.362   0.361   0.358   0.362   0.362   0.352   0.355   0.359   0.356   0.357   0.360   0.363   0.351   0.353   0.361   0.352   0.335   0.342   0.339   0.350   0.360   0.367   0.370   0.363   0.371   0.354   0.360   0.362   0.342
   121.90    0.378   0.368   0.363   0.355   0.361   0.359   0.365   0.359   0.364   0.364   0.344   0.356   0.350   0.351   0.360   0.367   0.361   0.347   0.346   0.355   0.350   0.344   0.339   0.345   0.360   0.351   0.352   0.358   0.360   0.353   0.357   0.356   0.359   0.362   0.350
   117.25    0.380   0.380   0.363   0.358   0.370   0.371   0.355   0.358   0.350   0.351   0.354   0.355   0.344   0.351   0.352   0.363   0.362   0.358   0.357   0.364   0.350   0.334   0.342   0.355   0.358   0.360   0.361   0.358   0.365   0.359   0.349   0.345   0.355   0.367   0.359
   112.60    0.374   0.374   0.367   0.365   0.368   0.364   0.364   0.349   0.368   0.359   0.351   0.349   0.354   0.348   0.354   0.358   0.364   0.364   0.359   0.355   0.350   0.332   0.335   0.341   0.350   0.345   0.352   0.365   0.362   0.358   0.344   0.349   0.365   0.375   0.380
   107.95    0.359   0.363   0.366   0.373   0.375   0.359   0.366   0.368   0.373   0.369   0.353   0.350   0.354   0.360   0.351   0.351   0.364   0.356   0.351   0.343   0.355   0.338   0.334   0.350   0.349   0.327   0.343   0.350   0.369   0.367   0.355   0.355   0.351   0.359   0.378
   103.30    0.361   0.367   0.366   0.375   0.373   0.362   0.378   0.369   0.366   0.361   0.353   0.345   0.338   0.352   0.348   0.341   0.360   0.373   0.360   0.351   0.345   0.346   0.338   0.349   0.353   0.351   0.352   0.356   0.352   0.367   0.365   0.364   0.360   0.362   0.367
    98.65    0.365   0.373   0.365   0.368   0.363   0.357   0.370   0.364   0.366   0.338   0.361   0.360   0.350   0.375   0.364   0.340   0.353   0.359   0.355   0.343   0.349   0.339   0.341   0.365   0.359   0.361   0.361   0.355   0.356   0.373   0.370   0.356   0.369   0.365   0.358
    94.00    0.371   0.378   0.378   0.358   0.349   0.358   0.373   0.372   0.357   0.361   0.364   0.356   0.364   0.362   0.347   0.347   0.357   0.354   0.358   0.345   0.345   0.356   0.360   0.354   0.360   0.365   0.374   0.360   0.344   0.356   0.366   0.360   0.364   0.357   0.358
    89.35    0.369   0.360   0.368   0.369   0.363   0.347   0.369   0.366   0.368   0.373   0.367   0.352   0.368   0.372   0.360   0.340   0.363   0.354   0.351   0.348   0.366   0.361   0.349   0.363   0.362   0.369   0.348   0.356   0.364   0.376   0.369   0.369   0.355   0.357   0.352
    84.70    0.364   0.356   0.353   0.364   0.362   0.351   0.351   0.369   0.367   0.368   0.359   0.353   0.358   0.349   0.356   0.362   0.349   0.350   0.353   0.357   0.373   0.374   0.361   0.377   0.373   0.361   0.338   0.351   0.356   0.362   0.352   0.350   0.350   0.341   0.350
    80.05    0.340   0.347   0.349   0.357   0.363   0.358   0.348   0.351   0.361   0.356   0.349   0.357   0.352   0.340   0.356   0.368   0.356   0.352   0.353   0.359   0.371   0.371   0.368   0.382   0.374   0.355   0.352   0.353   0.347   0.357   0.351   0.344   0.337   0.344   0.353
    75.40    0.347   0.350   0.358   0.367   0.363   0.353   0.359   0.338   0.342   0.337   0.343   0.361   0.361   0.373   0.381   0.378   0.350   0.360   0.355   0.350   0.362   0.383   0.373   0.372   0.370   0.356   0.349   0.353   0.353   0.357   0.341   0.339   0.353   0.362   0.372
    70.75    0.345   0.356   0.361   0.362   0.361   0.352   0.342   0.331   0.334   0.337   0.347   0.350   0.356   0.363   0.365   0.366   0.357   0.354   0.367   0.346   0.358   0.369   0.368   0.378   0.367   0.357   0.355   0.341   0.342   0.350   0.349   0.346   0.350   0.361   0.358
    66.10    0.347   0.361   0.348   0.357   0.362   0.351   0.338   0.344   0.340   0.349   0.346   0.342   0.354   0.352   0.359   0.363   0.360   0.351   0.353   0.371   0.359   0.375   0.362   0.382   0.368   0.354   0.334   0.338   0.341   0.335   0.356   0.348   0.362   0.356   0.367
    61.45    0.353   0.354   0.338   0.359   0.365   0.362   0.356   0.349   0.350   0.354   0.359   0.351   0.370   0.371   0.350   0.347   0.362   0.359   0.354   0.357   0.362   0.363   0.363   0.364   0.357   0.338   0.344   0.336   0.332   0.341   0.337   0.359   0.351   0.357   0.372
    56.80    0.355   0.347   0.345   0.359   0.362   0.366   0.364   0.369   0.363   0.346   0.368   0.363   0.366   0.373   0.355   0.358   0.357   0.362   0.361   0.358   0.361   0.354   0.349   0.351   0.345   0.343   0.341   0.343   0.339   0.336   0.346   0.332   0.347   0.354   0.356
    52.15    0.356   0.346   0.346   0.343   0.354   0.366   0.368   0.376   0.367   0.375   0.366   0.376   0.357   0.365   0.376   0.372   0.349   0.341   0.349   0.347   0.344   0.348   0.338   0.334   0.343   0.344   0.343   0.342   0.349   0.337   0.337   0.339   0.336   0.354   0.360
    47.50    0.350   0.348   0.329   0.351   0.363   0.357   0.366   0.366   0.363   0.374   0.379   0.365   0.376   0.371   0.384   0.381   0.353   0.354   0.351   0.334   0.339   0.337   0.331   0.329   0.336   0.329   0.324   0.335   0.339   0.338   0.341   0.344   0.333   0.354   0.359
    42.85    0.351   0.352   0.354   0.368   0.362   0.346   0.354   0.365   0.359   0.380   0.386   0.386   0.374   0.376   0.379   0.381   0.354   0.353   0.352   0.342   0.334   0.332   0.340   0.344   0.329   0.329   0.320   0.336   0.342   0.346   0.344   0.327   0.343   0.351   0.354
    38.20    0.356   0.354   0.362   0.360   0.350   0.352   0.361   0.365   0.359   0.389   0.392   0.378   0.371   0.381   0.378   0.371   0.348   0.342   0.352   0.334   0.347   0.351   0.351   0.341   0.339   0.338   0.338   0.343   0.352   0.348   0.331   0.343   0.342   0.353   0.360
    33.55    0.359   0.350   0.355   0.345   0.356   0.363   0.356   0.355   0.369   0.386   0.381   0.394   0.389   0.385   0.365   0.356   0.344   0.339   0.357   0.347   0.351   0.352   0.355   0.342   0.355   0.347   0.331   0.345   0.350   0.335   0.341   0.352   0.353   0.335   0.363
    28.90    0.362   0.351   0.357   0.351   0.345   0.350   0.352   0.364   0.373   0.387   0.375   0.376   0.378   0.379   0.359   0.341   0.344   0.339   0.349   0.360   0.349   0.356   0.358   0.350   0.359   0.358   0.347   0.336   0.332   0.338   0.342   0.346   0.351   0.357   0.351
    24.25    0.351   0.360   0.345   0.361   0.353   0.342   0.364   0.365   0.365   0.381   0.371   0.376   0.368   0.357   0.354   0.348   0.342   0.342   0.345   0.357   0.354   0.356   0.363   0.353   0.346   0.368   0.336   0.341   0.342   0.347   0.343   0.334   0.359   0.361   0.350
    19.60    0.360   0.358   0.345   0.348   0.349   0.355   0.363   0.346   0.353   0.363   0.360   0.364   0.365   0.356   0.363   0.357   0.338   0.337   0.339   0.346   0.365   0.352   0.357   0.341   0.350   0.351   0.341   0.336   0.348   0.346   0.354   0.357   0.366   0.365   0.363
    14.95    0.346   0.353   0.343   0.350   0.348   0.340   0.347   0.344   0.346   0.341   0.347   0.354   0.361   0.360   0.349   0.348   0.340   0.342   0.342   0.354   0.366   0.354   0.351   0.362   0.348   0.342   0.349   0.343   0.354   0.357   0.357   0.358   0.363   0.365   0.374
    10.30    0.344   0.354   0.356   0.351   0.356   0.357   0.347   0.345   0.342   0.348   0.347   0.351   0.353   0.348   0.349   0.363   0.358   0.352   0.344   0.336   0.355   0.352   0.358   0.363   0.343   0.345   0.350   0.350   0.352   0.352   0.348   0.347   0.349   0.368   0.377
     5.65    0.368   0.372   0.375   0.361   0.357   0.355   0.348   0.345   0.344   0.341   0.332   0.345   0.354   0.346   0.351   0.341   0.355   0.360   0.355   0.352   0.346   0.346   0.360   0.368   0.341   0.340   0.353   0.354   0.348   0.343   0.340   0.345   0.348   0.347   0.357
     1.00    0.357   0.370   0.379   0.368   0.363   0.356   0.353   0.349   0.339   0.340   0.339   0.347   0.357   0.346   0.359   0.362   0.356   0.362   0.360   0.359   0.353   0.342   0.357   0.371   0.366   0.356   0.355   0.338   0.353   0.347   0.345   0.353   0.348   0.354   0.361

   Mean standard deviation across all grid points:
      u component:    0.691 m/s
      v component:    0.578 m/s
      w component:    0.356 m/s


U-component (X) statistics from the interpolated hub point:

   Mean =   9.9913 m/s
   TI   =   7.2682 %


Processing complete.  5726.3 CPU seconds used.
