
This summary file was generated by TurbSim (from OpenFAST-v3.5.3) on 20-Apr-2025 at 03:40:44.


Runtime Options:

**********  Random seed #1
    RANLUX  Type of random number generator
         F  Output binary HH turbulence parameters?
         F  Output formatted turbulence parameters?
         F  Output AeroDyn HH files?
         T  Output AeroDyn FF files?
         F  Output BLADED FF files?
         F  Output tower data?
         F  Output HAWC FF files?
         F  Output formatted FF files?
         T  Output coherent turbulence time step file?
 0 -  NONE  IEC turbulence models scaled to exact specified standard deviation


Turbine/Model Specifications:

        37  Vertical grid-point matrix dimension
        35  Horizontal grid-point matrix dimension
     0.250  Time step [seconds]
   900.000  Analysis time [seconds]
   900.000  Usable output time [seconds]
    89.350  Hub height [m]
   167.400  Grid height [m]
   158.100  Grid width [m]
     0.000  Vertical flow angle [degrees]
     0.000  Horizontal flow angle [degrees]


Meteorological Boundary Conditions:

    TIMESR  User-input time series spectral model
       N/A  IEC standard
       N/A  IEC turbulence characteristic
       N/A  IEC turbulence type
       N/A  IEC Extreme Turbulence Model (ETM) "c" parameter [m/s]
       PL   Wind profile type
    90.000  Reference height [m]
    10.000  Reference wind speed [m/s]
       N/A  Jet height [m]
     0.120  Power law exponent
     0.030  Surface roughness length [m]


Non-IEC Meteorological Boundary Conditions:

    45.000  Site latitude [degrees]
     0.050  Gradient Richardson number
     0.480  Friction or shear velocity [m/s]
       N/A  Mixing layer depth [m]
       N/A  Mean hub u'w' Reynolds stress
       N/A  Mean hub u'v' Reynolds stress
       N/A  Mean hub v'w' Reynolds stress


Spatial Coherence Models:

       IEC  u-component coherence model
       IEC  v-component coherence model
       IEC  w-component coherence model
(   12.000, 0.353E-03)  u-component coherence parameters
(   12.000, 0.353E-03)  v-component coherence parameters
(   12.000, 0.353E-03)  w-component coherence parameters
       N/A  Coherence exponent


Coherent Turbulence Scaling Parameters:

.\EventData
            Name of the path containing the coherent turbulence data files
       les  Type of coherent turbulence data files
     1.000  Disturbance scale (ratio of wave height to rotor diameter)
     0.500  Fractional location of tower centerline from right
     0.500  Fractional location of hub height from the bottom of the dataset
    30.000  Minimum start time for coherent structures [seconds]


Profiles from User-Defined Time-Series Input:

  Height   Wind Speed   Horizontal Angle   Vertical Angle
   (m)        (m/s)          (deg)              (deg)    
  ------   ----------   ----------------   --------------
   94.00      10.00          -0.63               -0.00


You have requested that the following file(s) be generated:

   /kfs3/scratch/agupta/Projects/RL_Incubator/FinalRuns_Veer/Seed4/./FFSim_Seed4/Cond00_v10.0_PL0.12_TI6.0/Case0_wdirp00/Seed_7/TurbSim/HighT6.bts (AeroDyn/TurbSim full-field wind file)


Turbulence Simulation Scaling Parameter Summary:

   Turbulence model used                            =  User-input time series
   Gradient Richardson number                       =    0.050
   Monin-Obukhov (M-O) z/L parameter                =    0.067
   Monin-Obukhov (M-O) length scale                 = 1340.250 m
   Mean wind speed at hub height                    =    9.991 m/s

   Wind profile type                                =  Power law
   Power law exponent                               =    0.120
   Mean shear across rotor disk                     =    0.019 (m/s)/m
   Assumed rotor diameter                           =  158.100 m
   Surface roughness length                         =    0.030 m

   Nyquist frequency of turbulent wind field        =    2.000 Hz

   Number of time steps in the FFT                  =     3600
   Number of time steps output                      =     3600
   Number of points simulated                       =     1296


Mean Flow Angles:

   Vertical   =   0.0 degrees
   Horizontal =   0.0 degrees

Mean Wind Speed Profile:

   Height    Wind Speed   Horizontal Angle  Vertical Angle  U-comp (X)   V-comp (Y)   W-comp (Z)
     (m)        (m/s)         (degrees)       (degrees)       (m/s)        (m/s)        (m/s)   
   ------    ----------   ----------------  --------------  ----------   ----------   ----------
    168.4       10.78            0.00            0.00         10.78         0.00         0.00
    163.7       10.74            0.00            0.00         10.74         0.00         0.00
    159.1       10.71            0.00            0.00         10.71         0.00         0.00
    154.4       10.67            0.00            0.00         10.67         0.00         0.00
    149.8       10.63            0.00            0.00         10.63         0.00         0.00
    145.1       10.59            0.00            0.00         10.59         0.00         0.00
    140.5       10.55            0.00            0.00         10.55         0.00         0.00
    135.8       10.51            0.00            0.00         10.51         0.00         0.00
    131.2       10.46            0.00            0.00         10.46         0.00         0.00
    126.5       10.42            0.00            0.00         10.42         0.00         0.00
    121.9       10.37            0.00            0.00         10.37         0.00         0.00
    117.2       10.32            0.00            0.00         10.32         0.00         0.00
    112.6       10.27            0.00            0.00         10.27         0.00         0.00
    107.9       10.22            0.00            0.00         10.22         0.00         0.00
    103.3       10.17            0.00            0.00         10.17         0.00         0.00
     98.6       10.11            0.00            0.00         10.11         0.00         0.00
     94.0       10.05            0.00            0.00         10.05         0.00         0.00
     89.3        9.99            0.00            0.00          9.99         0.00         0.00
     84.7        9.93            0.00            0.00          9.93         0.00         0.00
     80.0        9.86            0.00            0.00          9.86         0.00         0.00
     75.4        9.79            0.00            0.00          9.79         0.00         0.00
     70.7        9.72            0.00            0.00          9.72         0.00         0.00
     66.1        9.64            0.00            0.00          9.64         0.00         0.00
     61.4        9.55            0.00            0.00          9.55         0.00         0.00
     56.8        9.46            0.00            0.00          9.46         0.00         0.00
     52.1        9.37            0.00            0.00          9.37         0.00         0.00
     47.5        9.26            0.00            0.00          9.26         0.00         0.00
     42.8        9.15            0.00            0.00          9.15         0.00         0.00
     38.2        9.02            0.00            0.00          9.02         0.00         0.00
     33.5        8.88            0.00            0.00          8.88         0.00         0.00
     28.9        8.73            0.00            0.00          8.73         0.00         0.00
     24.2        8.54            0.00            0.00          8.54         0.00         0.00
     19.6        8.33            0.00            0.00          8.33         0.00         0.00
     14.9        8.06            0.00            0.00          8.06         0.00         0.00
     10.3        7.71            0.00            0.00          7.71         0.00         0.00
      5.6        7.17            0.00            0.00          7.17         0.00         0.00
      1.0        5.83            0.00            0.00          5.83         0.00         0.00


Harvested Random Seeds after Generation of the Random Numbers:

     65026800 K 1
            0 K 2


Hub-Height Simulated Turbulence Statistical Summary:

   Type of Wind        Min (m/s)   Mean (m/s)    Max (m/s)  Sigma (m/s)       TI (%)
   ----------------    ---------   ----------    ---------  -----------       ------
   Longitudinal (u)         8.64         9.99        11.52        0.409        4.095
   Lateral (v)             -1.55        -0.00         1.55        0.493        4.937
   Vertical (w)            -1.11         0.00         1.05        0.281        2.811
   U component              8.64         9.99        11.52        0.409        4.095
   V component             -1.55        -0.00         1.55        0.493        4.937
   W component             -1.11         0.00         1.05        0.281        2.811
   Horizontal (U&V)         8.64        10.00        11.61        0.409        4.085
   Total                    8.64        10.01        11.61        0.408        4.081

                       Min Reynolds     Mean Reynolds    Max Reynolds    Correlation
   Product             Stress (m/s)^2   Stress (m/s)^2   Stress (m/s)^2  Coefficient
   ----------------    --------------   --------------   --------------  -----------
   u'w'                     -0.694            -0.009             0.703        -0.077
   u'v'                     -1.134             0.017             2.228         0.085
   v'w'                     -1.573            -0.003             1.030        -0.020


   Friction Velocity (Ustar)  =      0.094 m/s
   Maximum Instantaneous TKE  =      2.260 (m/s)^2
   Maximum Instantaneous CTKE =      1.144 (m/s)^2


Grid Point Variance Summary:

   Y-coord  -79.05  -74.40  -69.75  -65.10  -60.45  -55.80  -51.15  -46.50  -41.85  -37.20  -32.55  -27.90  -23.25  -18.60  -13.95   -9.30   -4.65    0.00    4.65    9.30   13.95   18.60   23.25   27.90   32.55   37.20   41.85   46.50   51.15   55.80   60.45   65.10   69.75   74.40   79.05

   Height   Standard deviation at grid points for the u component:
   168.40    0.510   0.530   0.543   0.503   0.512   0.522   0.548   0.487   0.459   0.456   0.468   0.453   0.451   0.451   0.457   0.458   0.448   0.451   0.462   0.493   0.483   0.456   0.484   0.512   0.503   0.469   0.446   0.474   0.473   0.463   0.466   0.457   0.476   0.444   0.486
   163.75    0.496   0.519   0.531   0.505   0.512   0.561   0.541   0.519   0.496   0.476   0.478   0.465   0.442   0.454   0.459   0.445   0.438   0.470   0.502   0.479   0.492   0.494   0.477   0.484   0.490   0.475   0.462   0.476   0.485   0.491   0.512   0.473   0.465   0.463   0.477
   159.10    0.484   0.518   0.505   0.506   0.521   0.532   0.539   0.496   0.500   0.471   0.464   0.481   0.460   0.449   0.457   0.443   0.445   0.442   0.520   0.506   0.530   0.469   0.448   0.438   0.447   0.445   0.447   0.464   0.478   0.502   0.488   0.484   0.469   0.454   0.474
   154.45    0.489   0.520   0.510   0.536   0.518   0.511   0.511   0.470   0.475   0.467   0.481   0.450   0.460   0.443   0.459   0.433   0.433   0.453   0.505   0.525   0.541   0.498   0.471   0.458   0.483   0.448   0.455   0.456   0.478   0.486   0.490   0.479   0.467   0.443   0.454
   149.80    0.522   0.531   0.515   0.490   0.485   0.525   0.493   0.516   0.481   0.473   0.482   0.470   0.452   0.424   0.447   0.435   0.456   0.531   0.522   0.541   0.511   0.473   0.476   0.495   0.493   0.465   0.474   0.491   0.474   0.507   0.479   0.456   0.469   0.462   0.449
   145.15    0.562   0.534   0.586   0.514   0.519   0.525   0.498   0.508   0.487   0.475   0.466   0.481   0.456   0.438   0.470   0.460   0.497   0.484   0.538   0.506   0.528   0.499   0.492   0.488   0.513   0.465   0.487   0.486   0.498   0.498   0.469   0.455   0.457   0.471   0.489
   140.50    0.584   0.607   0.592   0.535   0.495   0.491   0.510   0.480   0.452   0.452   0.475   0.470   0.487   0.453   0.453   0.443   0.506   0.491   0.511   0.518   0.511   0.509   0.509   0.491   0.490   0.464   0.460   0.479   0.465   0.481   0.468   0.476   0.472   0.474   0.471
   135.85    0.564   0.564   0.575   0.569   0.563   0.516   0.495   0.482   0.467   0.456   0.484   0.465   0.474   0.434   0.442   0.431   0.481   0.494   0.496   0.526   0.500   0.522   0.516   0.475   0.463   0.455   0.463   0.463   0.439   0.454   0.447   0.467   0.445   0.464   0.455
   131.20    0.544   0.522   0.523   0.564   0.557   0.511   0.471   0.457   0.424   0.426   0.461   0.481   0.480   0.448   0.493   0.477   0.500   0.496   0.513   0.514   0.512   0.521   0.517   0.485   0.481   0.461   0.429   0.409   0.445   0.440   0.451   0.446   0.463   0.449   0.451
   126.55    0.526   0.525   0.539   0.520   0.542   0.515   0.465   0.445   0.428   0.429   0.456   0.482   0.464   0.472   0.473   0.519   0.532   0.526   0.507   0.518   0.493   0.489   0.481   0.509   0.480   0.468   0.454   0.421   0.437   0.459   0.444   0.447   0.439   0.460   0.434
   121.90    0.520   0.548   0.487   0.501   0.528   0.518   0.464   0.438   0.438   0.444   0.447   0.495   0.451   0.473   0.482   0.510   0.506   0.499   0.498   0.498   0.452   0.459   0.480   0.499   0.490   0.465   0.465   0.442   0.453   0.458   0.454   0.433   0.463   0.455   0.432
   117.25    0.499   0.527   0.488   0.517   0.503   0.500   0.482   0.449   0.435   0.466   0.446   0.467   0.475   0.462   0.502   0.492   0.475   0.473   0.457   0.487   0.455   0.473   0.489   0.492   0.502   0.483   0.438   0.448   0.456   0.487   0.474   0.435   0.437   0.429   0.419
   112.60    0.483   0.484   0.512   0.515   0.497   0.479   0.490   0.492   0.457   0.463   0.464   0.500   0.505   0.465   0.463   0.457   0.468   0.488   0.492   0.489   0.429   0.467   0.474   0.472   0.493   0.478   0.459   0.419   0.464   0.462   0.455   0.429   0.432   0.451   0.459
   107.95    0.464   0.478   0.486   0.524   0.483   0.495   0.495   0.513   0.487   0.456   0.452   0.470   0.488   0.459   0.452   0.424   0.451   0.507   0.509   0.488   0.460   0.467   0.485   0.477   0.461   0.447   0.438   0.429   0.464   0.460   0.438   0.421   0.420   0.457   0.435
   103.30    0.478   0.461   0.449   0.497   0.488   0.482   0.481   0.492   0.475   0.494   0.455   0.467   0.460   0.483   0.436   0.423   0.450   0.467   0.493   0.498   0.514   0.472   0.493   0.497   0.468   0.468   0.432   0.439   0.471   0.453   0.437   0.405   0.394   0.427   0.465
    98.65    0.481   0.471   0.426   0.435   0.450   0.477   0.484   0.467   0.458   0.483   0.446   0.444   0.414   0.424   0.432   0.411   0.430   0.499   0.492   0.492   0.511   0.483   0.487   0.476   0.467   0.453   0.432   0.421   0.424   0.451   0.429   0.389   0.422   0.436   0.471
    94.00    0.486   0.443   0.431   0.439   0.473   0.473   0.464   0.483   0.495   0.477   0.477   0.458   0.399   0.395   0.414   0.411   0.428   0.456   0.486   0.522   0.511   0.470   0.435   0.455   0.459   0.448   0.422   0.414   0.389   0.415   0.448   0.417   0.395   0.431   0.441
    89.35    0.470   0.446   0.418   0.483   0.475   0.460   0.470   0.464   0.439   0.473   0.449   0.421   0.392   0.386   0.408   0.418   0.378   0.409   0.463   0.475   0.481   0.466   0.425   0.456   0.434   0.427   0.405   0.407   0.386   0.414   0.436   0.450   0.434   0.427   0.447
    84.70    0.468   0.436   0.447   0.474   0.470   0.462   0.472   0.468   0.426   0.440   0.441   0.426   0.398   0.380   0.403   0.411   0.408   0.433   0.445   0.445   0.438   0.448   0.429   0.420   0.410   0.425   0.395   0.385   0.390   0.418   0.423   0.434   0.462   0.475   0.486
    80.05    0.497   0.446   0.445   0.470   0.464   0.461   0.467   0.461   0.451   0.431   0.417   0.427   0.433   0.396   0.409   0.418   0.390   0.416   0.411   0.448   0.442   0.414   0.416   0.428   0.445   0.429   0.414   0.399   0.413   0.414   0.434   0.438   0.474   0.484   0.465
    75.40    0.499   0.467   0.469   0.489   0.478   0.486   0.468   0.442   0.433   0.433   0.423   0.427   0.432   0.412   0.418   0.441   0.419   0.427   0.445   0.428   0.407   0.413   0.423   0.440   0.415   0.429   0.440   0.430   0.443   0.443   0.427   0.432   0.434   0.450   0.462
    70.75    0.500   0.500   0.496   0.495   0.498   0.455   0.437   0.439   0.424   0.412   0.438   0.431   0.442   0.415   0.425   0.439   0.417   0.437   0.459   0.427   0.431   0.448   0.454   0.439   0.408   0.450   0.436   0.441   0.449   0.478   0.440   0.428   0.456   0.443   0.468
    66.10    0.500   0.491   0.494   0.468   0.450   0.429   0.402   0.452   0.458   0.432   0.442   0.447   0.455   0.423   0.430   0.453   0.428   0.448   0.451   0.450   0.437   0.422   0.452   0.449   0.419   0.441   0.442   0.441   0.431   0.459   0.458   0.447   0.454   0.473   0.485
    61.45    0.515   0.462   0.439   0.455   0.438   0.403   0.431   0.447   0.452   0.440   0.462   0.468   0.464   0.463   0.467   0.463   0.451   0.472   0.484   0.466   0.463   0.422   0.437   0.462   0.423   0.441   0.436   0.434   0.450   0.452   0.471   0.449   0.462   0.456   0.452
    56.80    0.491   0.474   0.473   0.432   0.415   0.424   0.403   0.417   0.408   0.437   0.476   0.467   0.468   0.462   0.459   0.444   0.483   0.496   0.499   0.485   0.479   0.454   0.447   0.462   0.439   0.446   0.455   0.483   0.472   0.455   0.460   0.449   0.452   0.456   0.418
    52.15    0.489   0.453   0.446   0.448   0.437   0.420   0.427   0.395   0.414   0.451   0.454   0.445   0.455   0.427   0.447   0.444   0.451   0.470   0.464   0.455   0.481   0.459   0.479   0.441   0.463   0.475   0.504   0.499   0.503   0.487   0.483   0.450   0.483   0.481   0.464
    47.50    0.456   0.424   0.424   0.408   0.451   0.436   0.410   0.400   0.454   0.450   0.440   0.440   0.440   0.454   0.446   0.433   0.435   0.454   0.439   0.460   0.456   0.463   0.456   0.444   0.500   0.487   0.511   0.514   0.515   0.499   0.487   0.463   0.474   0.497   0.497
    42.85    0.463   0.440   0.424   0.395   0.427   0.440   0.418   0.450   0.450   0.468   0.458   0.459   0.446   0.456   0.443   0.450   0.438   0.416   0.432   0.440   0.457   0.461   0.470   0.463   0.514   0.525   0.523   0.490   0.514   0.501   0.481   0.502   0.471   0.512   0.492
    38.20    0.459   0.423   0.413   0.393   0.417   0.420   0.414   0.415   0.434   0.458   0.455   0.465   0.436   0.424   0.461   0.471   0.452   0.411   0.424   0.458   0.462   0.468   0.491   0.480   0.511   0.490   0.515   0.515   0.490   0.484   0.469   0.503   0.478   0.490   0.483
    33.55    0.471   0.461   0.436   0.403   0.412   0.419   0.427   0.425   0.412   0.430   0.456   0.447   0.435   0.443   0.452   0.451   0.451   0.461   0.481   0.466   0.505   0.487   0.493   0.483   0.520   0.508   0.539   0.524   0.482   0.491   0.486   0.481   0.486   0.494   0.462
    28.90    0.440   0.452   0.429   0.422   0.424   0.421   0.439   0.431   0.419   0.436   0.464   0.457   0.453   0.429   0.444   0.448   0.472   0.472   0.487   0.495   0.508   0.514   0.468   0.479   0.496   0.514   0.510   0.529   0.483   0.494   0.473   0.467   0.472   0.485   0.468
    24.25    0.440   0.429   0.439   0.436   0.424   0.431   0.438   0.441   0.443   0.423   0.450   0.465   0.428   0.423   0.417   0.423   0.469   0.481   0.463   0.471   0.505   0.499   0.488   0.490   0.485   0.475   0.492   0.493   0.468   0.470   0.442   0.478   0.499   0.488   0.493
    19.60    0.431   0.416   0.402   0.449   0.438   0.437   0.435   0.436   0.417   0.439   0.450   0.448   0.443   0.423   0.407   0.436   0.451   0.462   0.469   0.480   0.482   0.471   0.484   0.475   0.470   0.478   0.507   0.488   0.514   0.482   0.459   0.497   0.486   0.478   0.486
    14.95    0.437   0.419   0.423   0.461   0.450   0.448   0.401   0.434   0.424   0.443   0.445   0.440   0.457   0.427   0.446   0.440   0.464   0.464   0.461   0.457   0.449   0.454   0.458   0.459   0.440   0.472   0.500   0.488   0.502   0.497   0.506   0.461   0.455   0.477   0.490
    10.30    0.432   0.423   0.433   0.456   0.446   0.469   0.457   0.451   0.471   0.495   0.435   0.450   0.461   0.454   0.437   0.434   0.451   0.448   0.453   0.450   0.434   0.432   0.442   0.466   0.436   0.449   0.448   0.464   0.481   0.484   0.496   0.457   0.484   0.513   0.511
     5.65    0.482   0.450   0.442   0.456   0.449   0.470   0.466   0.446   0.442   0.467   0.466   0.456   0.440   0.448   0.439   0.435   0.458   0.491   0.443   0.434   0.435   0.453   0.460   0.445   0.465   0.439   0.439   0.461   0.470   0.458   0.464   0.474   0.491   0.506   0.474
     1.00    0.477   0.467   0.457   0.447   0.470   0.458   0.450   0.435   0.419   0.444   0.480   0.480   0.480   0.462   0.446   0.447   0.474   0.497   0.461   0.459   0.459   0.438   0.447   0.454   0.453   0.473   0.480   0.460   0.426   0.464   0.482   0.471   0.506   0.510   0.498

   Height   Standard deviation at grid points for the v component:
   168.40    0.484   0.524   0.526   0.562   0.555   0.532   0.516   0.572   0.546   0.566   0.623   0.617   0.619   0.571   0.557   0.568   0.567   0.535   0.514   0.475   0.486   0.462   0.429   0.447   0.462   0.465   0.505   0.516   0.546   0.554   0.526   0.517   0.533   0.553   0.518
   163.75    0.515   0.524   0.550   0.554   0.531   0.550   0.546   0.571   0.577   0.583   0.618   0.614   0.608   0.558   0.574   0.582   0.572   0.550   0.523   0.487   0.484   0.483   0.450   0.434   0.467   0.476   0.505   0.519   0.534   0.553   0.548   0.542   0.572   0.543   0.551
   159.10    0.534   0.562   0.522   0.513   0.559   0.540   0.554   0.596   0.612   0.620   0.618   0.596   0.602   0.576   0.566   0.558   0.561   0.530   0.535   0.503   0.502   0.494   0.477   0.466   0.475   0.486   0.505   0.507   0.524   0.541   0.546   0.555   0.582   0.576   0.556
   154.45    0.527   0.540   0.566   0.569   0.531   0.585   0.558   0.615   0.605   0.631   0.599   0.582   0.612   0.596   0.542   0.515   0.511   0.493   0.499   0.499   0.520   0.500   0.470   0.471   0.493   0.506   0.518   0.510   0.523   0.528   0.536   0.550   0.565   0.528   0.564
   149.80    0.513   0.536   0.539   0.546   0.558   0.579   0.585   0.571   0.590   0.607   0.608   0.581   0.623   0.579   0.570   0.530   0.511   0.506   0.504   0.492   0.503   0.492   0.465   0.473   0.497   0.483   0.501   0.494   0.514   0.536   0.534   0.554   0.543   0.547   0.541
   145.15    0.496   0.507   0.517   0.546   0.542   0.577   0.551   0.534   0.571   0.583   0.554   0.565   0.588   0.616   0.579   0.534   0.524   0.511   0.494   0.505   0.506   0.472   0.494   0.494   0.472   0.485   0.493   0.520   0.515   0.530   0.540   0.535   0.545   0.550   0.529
   140.50    0.505   0.530   0.554   0.566   0.547   0.578   0.557   0.588   0.563   0.552   0.526   0.560   0.597   0.597   0.601   0.573   0.566   0.556   0.521   0.482   0.504   0.493   0.485   0.491   0.472   0.502   0.535   0.511   0.539   0.526   0.539   0.546   0.551   0.537   0.542
   135.85    0.539   0.542   0.555   0.550   0.572   0.541   0.562   0.587   0.530   0.507   0.534   0.555   0.557   0.563   0.583   0.599   0.571   0.550   0.518   0.501   0.478   0.490   0.509   0.474   0.482   0.513   0.566   0.560   0.537   0.549   0.564   0.527   0.523   0.545   0.550
   131.20    0.515   0.536   0.505   0.559   0.568   0.523   0.552   0.556   0.501   0.534   0.548   0.579   0.587   0.594   0.591   0.584   0.564   0.525   0.500   0.507   0.528   0.488   0.491   0.489   0.503   0.524   0.525   0.548   0.543   0.581   0.565   0.544   0.537   0.542   0.574
   126.55    0.542   0.551   0.505   0.508   0.539   0.566   0.520   0.512   0.510   0.498   0.535   0.563   0.573   0.565   0.523   0.549   0.542   0.539   0.498   0.482   0.523   0.513   0.498   0.478   0.524   0.522   0.534   0.524   0.533   0.590   0.614   0.571   0.570   0.578   0.582
   121.90    0.504   0.533   0.532   0.497   0.504   0.542   0.506   0.494   0.482   0.530   0.500   0.526   0.512   0.532   0.510   0.545   0.571   0.567   0.527   0.504   0.520   0.522   0.509   0.528   0.529   0.556   0.525   0.516   0.551   0.569   0.586   0.569   0.578   0.586   0.592
   117.25    0.494   0.495   0.503   0.468   0.474   0.525   0.501   0.487   0.497   0.515   0.496   0.509   0.518   0.528   0.534   0.512   0.547   0.544   0.510   0.529   0.504   0.536   0.528   0.538   0.546   0.558   0.514   0.531   0.563   0.618   0.609   0.568   0.583   0.557   0.552
   112.60    0.514   0.490   0.470   0.450   0.450   0.484   0.511   0.498   0.476   0.496   0.484   0.506   0.512   0.517   0.524   0.491   0.508   0.487   0.489   0.502   0.527   0.540   0.545   0.569   0.608   0.555   0.551   0.537   0.575   0.604   0.604   0.561   0.555   0.550   0.522
   107.95    0.500   0.479   0.502   0.449   0.448   0.460   0.465   0.468   0.450   0.468   0.486   0.496   0.496   0.511   0.509   0.519   0.492   0.493   0.471   0.489   0.511   0.536   0.526   0.530   0.570   0.546   0.539   0.539   0.565   0.608   0.555   0.577   0.526   0.548   0.539
   103.30    0.490   0.473   0.476   0.478   0.462   0.467   0.476   0.459   0.455   0.445   0.471   0.444   0.460   0.473   0.478   0.489   0.512   0.478   0.476   0.485   0.481   0.488   0.485   0.519   0.540   0.568   0.549   0.563   0.564   0.599   0.552   0.558   0.538   0.577   0.551
    98.65    0.463   0.456   0.447   0.466   0.467   0.455   0.461   0.451   0.442   0.437   0.465   0.464   0.461   0.471   0.478   0.487   0.482   0.478   0.438   0.447   0.434   0.465   0.477   0.493   0.489   0.530   0.528   0.553   0.570   0.592   0.586   0.559   0.573   0.597   0.554
    94.00    0.454   0.463   0.443   0.456   0.445   0.458   0.437   0.461   0.450   0.469   0.458   0.470   0.473   0.479   0.468   0.445   0.503   0.467   0.452   0.456   0.448   0.458   0.464   0.442   0.482   0.508   0.501   0.501   0.558   0.596   0.612   0.554   0.561   0.562   0.567
    89.35    0.431   0.415   0.427   0.435   0.436   0.455   0.424   0.445   0.466   0.448   0.462   0.450   0.463   0.461   0.442   0.445   0.472   0.493   0.462   0.454   0.443   0.459   0.444   0.435   0.467   0.501   0.495   0.540   0.570   0.586   0.608   0.579   0.588   0.568   0.574
    84.70    0.422   0.402   0.399   0.427   0.416   0.442   0.440   0.426   0.456   0.412   0.426   0.451   0.450   0.454   0.457   0.457   0.466   0.458   0.447   0.444   0.437   0.429   0.433   0.447   0.467   0.491   0.505   0.534   0.572   0.590   0.600   0.595   0.544   0.564   0.568
    80.05    0.396   0.391   0.419   0.430   0.423   0.432   0.423   0.396   0.429   0.425   0.401   0.422   0.438   0.425   0.442   0.414   0.434   0.419   0.434   0.422   0.424   0.437   0.426   0.427   0.443   0.482   0.491   0.519   0.552   0.562   0.585   0.585   0.585   0.562   0.550
    75.40    0.378   0.407   0.411   0.419   0.412   0.408   0.412   0.396   0.430   0.411   0.445   0.424   0.430   0.441   0.446   0.413   0.410   0.416   0.424   0.425   0.420   0.417   0.437   0.440   0.413   0.423   0.482   0.507   0.502   0.527   0.553   0.580   0.595   0.571   0.524
    70.75    0.431   0.412   0.433   0.423   0.434   0.414   0.417   0.396   0.431   0.432   0.430   0.434   0.439   0.450   0.453   0.437   0.431   0.437   0.440   0.438   0.417   0.406   0.439   0.432   0.438   0.439   0.451   0.504   0.505   0.516   0.518   0.558   0.586   0.533   0.530
    66.10    0.445   0.443   0.432   0.414   0.411   0.397   0.395   0.403   0.431   0.428   0.436   0.419   0.423   0.462   0.439   0.439   0.420   0.426   0.453   0.437   0.405   0.418   0.428   0.437   0.460   0.454   0.459   0.467   0.494   0.513   0.529   0.558   0.535   0.522   0.509
    61.45    0.444   0.441   0.420   0.419   0.419   0.392   0.382   0.382   0.415   0.420   0.424   0.415   0.423   0.419   0.446   0.439   0.436   0.461   0.464   0.446   0.427   0.416   0.448   0.462   0.472   0.479   0.469   0.463   0.501   0.471   0.497   0.511   0.511   0.500   0.455
    56.80    0.452   0.452   0.431   0.432   0.418   0.431   0.400   0.429   0.426   0.427   0.421   0.424   0.433   0.428   0.439   0.442   0.469   0.471   0.471   0.458   0.462   0.429   0.421   0.466   0.497   0.478   0.503   0.470   0.488   0.476   0.518   0.514   0.489   0.492   0.449
    52.15    0.441   0.441   0.442   0.424   0.427   0.442   0.412   0.424   0.456   0.427   0.428   0.427   0.432   0.443   0.436   0.468   0.468   0.450   0.451   0.466   0.452   0.445   0.467   0.489   0.493   0.514   0.479   0.499   0.499   0.526   0.521   0.500   0.501   0.461   0.435
    47.50    0.450   0.435   0.454   0.418   0.436   0.446   0.447   0.452   0.435   0.434   0.429   0.409   0.408   0.433   0.445   0.462   0.470   0.469   0.479   0.473   0.474   0.477   0.469   0.507   0.523   0.497   0.479   0.491   0.489   0.475   0.498   0.506   0.519   0.464   0.458
    42.85    0.443   0.423   0.408   0.407   0.426   0.435   0.428   0.430   0.406   0.412   0.423   0.401   0.414   0.424   0.433   0.471   0.476   0.475   0.462   0.459   0.465   0.494   0.495   0.494   0.523   0.484   0.470   0.473   0.470   0.513   0.528   0.546   0.498   0.498   0.488
    38.20    0.443   0.415   0.406   0.425   0.444   0.417   0.416   0.434   0.391   0.410   0.424   0.422   0.425   0.445   0.443   0.471   0.494   0.491   0.469   0.459   0.488   0.496   0.466   0.484   0.515   0.470   0.475   0.474   0.488   0.479   0.507   0.531   0.529   0.490   0.471
    33.55    0.435   0.445   0.442   0.431   0.427   0.432   0.426   0.428   0.430   0.428   0.425   0.423   0.420   0.434   0.460   0.478   0.484   0.508   0.471   0.483   0.487   0.471   0.477   0.493   0.464   0.466   0.471   0.478   0.478   0.468   0.512   0.527   0.539   0.500   0.450
    28.90    0.426   0.440   0.451   0.443   0.437   0.437   0.421   0.425   0.423   0.419   0.449   0.448   0.406   0.450   0.455   0.462   0.459   0.497   0.486   0.468   0.467   0.441   0.473   0.469   0.456   0.487   0.471   0.467   0.455   0.463   0.499   0.527   0.510   0.492   0.465
    24.25    0.444   0.438   0.444   0.417   0.426   0.415   0.403   0.429   0.435   0.443   0.452   0.448   0.428   0.448   0.448   0.457   0.460   0.470   0.453   0.460   0.438   0.421   0.446   0.454   0.449   0.501   0.499   0.467   0.484   0.464   0.487   0.491   0.502   0.478   0.485
    19.60    0.476   0.452   0.425   0.407   0.423   0.417   0.433   0.430   0.444   0.463   0.433   0.451   0.445   0.464   0.457   0.452   0.469   0.454   0.419   0.413   0.412   0.439   0.456   0.439   0.473   0.503   0.502   0.480   0.491   0.479   0.487   0.499   0.475   0.476   0.489
    14.95    0.476   0.461   0.432   0.427   0.408   0.410   0.445   0.451   0.470   0.451   0.445   0.450   0.470   0.470   0.450   0.477   0.468   0.433   0.443   0.400   0.408   0.421   0.453   0.447   0.468   0.500   0.478   0.457   0.481   0.482   0.493   0.492   0.498   0.493   0.475
    10.30    0.477   0.463   0.430   0.426   0.422   0.427   0.424   0.448   0.452   0.433   0.435   0.453   0.470   0.507   0.507   0.489   0.502   0.493   0.453   0.436   0.437   0.458   0.462   0.453   0.472   0.500   0.473   0.448   0.458   0.461   0.468   0.501   0.492   0.493   0.505
     5.65    0.479   0.440   0.421   0.407   0.408   0.426   0.451   0.447   0.453   0.458   0.433   0.481   0.519   0.540   0.549   0.492   0.504   0.477   0.466   0.468   0.483   0.460   0.469   0.461   0.470   0.489   0.489   0.456   0.471   0.464   0.459   0.483   0.482   0.492   0.476
     1.00    0.455   0.452   0.420   0.424   0.422   0.457   0.451   0.472   0.473   0.502   0.467   0.473   0.499   0.540   0.526   0.495   0.502   0.478   0.460   0.480   0.475   0.456   0.467   0.463   0.480   0.495   0.511   0.477   0.484   0.484   0.522   0.510   0.505   0.476   0.494

   Height   Standard deviation at grid points for the w component:
   168.40    0.315   0.321   0.339   0.343   0.330   0.316   0.311   0.307   0.300   0.296   0.298   0.283   0.296   0.300   0.293   0.297   0.278   0.287   0.286   0.294   0.284   0.293   0.285   0.297   0.296   0.295   0.283   0.289   0.292   0.301   0.294   0.284   0.294   0.287   0.284
   163.75    0.309   0.317   0.333   0.327   0.336   0.309   0.305   0.298   0.302   0.298   0.296   0.284   0.303   0.317   0.306   0.284   0.298   0.297   0.287   0.297   0.303   0.307   0.296   0.301   0.299   0.287   0.283   0.296   0.299   0.296   0.294   0.292   0.300   0.305   0.292
   159.10    0.322   0.319   0.329   0.322   0.323   0.308   0.314   0.301   0.302   0.310   0.298   0.292   0.305   0.305   0.305   0.291   0.298   0.309   0.301   0.296   0.304   0.296   0.294   0.305   0.296   0.283   0.295   0.301   0.307   0.304   0.288   0.294   0.301   0.296   0.297
   154.45    0.306   0.313   0.310   0.325   0.317   0.317   0.312   0.313   0.293   0.301   0.295   0.289   0.296   0.288   0.297   0.300   0.290   0.295   0.305   0.305   0.297   0.301   0.307   0.309   0.309   0.290   0.284   0.293   0.297   0.305   0.303   0.294   0.297   0.291   0.299
   149.80    0.310   0.323   0.303   0.317   0.308   0.299   0.294   0.299   0.289   0.289   0.299   0.285   0.285   0.279   0.278   0.280   0.292   0.284   0.293   0.297   0.291   0.288   0.295   0.296   0.297   0.292   0.283   0.293   0.301   0.300   0.306   0.293   0.298   0.291   0.302
   145.15    0.306   0.309   0.308   0.313   0.312   0.308   0.300   0.295   0.286   0.287   0.288   0.283   0.292   0.294   0.288   0.289   0.296   0.293   0.295   0.284   0.287   0.289   0.290   0.289   0.291   0.290   0.282   0.284   0.287   0.278   0.291   0.292   0.302   0.302   0.293
   140.50    0.307   0.306   0.289   0.289   0.300   0.298   0.290   0.284   0.293   0.289   0.282   0.288   0.294   0.294   0.308   0.303   0.291   0.296   0.296   0.292   0.296   0.304   0.286   0.294   0.296   0.288   0.284   0.274   0.286   0.281   0.283   0.288   0.286   0.290   0.306
   135.85    0.300   0.298   0.305   0.303   0.293   0.293   0.293   0.285   0.286   0.291   0.292   0.294   0.298   0.297   0.305   0.307   0.290   0.285   0.288   0.289   0.302   0.297   0.287   0.296   0.294   0.290   0.283   0.276   0.289   0.282   0.280   0.293   0.300   0.290   0.290
   131.20    0.292   0.305   0.298   0.298   0.284   0.291   0.280   0.282   0.280   0.297   0.303   0.316   0.307   0.308   0.299   0.298   0.297   0.299   0.301   0.303   0.296   0.295   0.291   0.294   0.296   0.285   0.272   0.274   0.287   0.286   0.293   0.299   0.281   0.294   0.289
   126.55    0.291   0.309   0.301   0.289   0.285   0.285   0.278   0.284   0.300   0.301   0.305   0.309   0.299   0.301   0.301   0.295   0.284   0.308   0.305   0.305   0.302   0.301   0.299   0.298   0.292   0.290   0.276   0.279   0.290   0.294   0.294   0.299   0.301   0.293   0.287
   121.90    0.290   0.298   0.309   0.301   0.299   0.292   0.283   0.295   0.305   0.304   0.299   0.299   0.304   0.282   0.290   0.287   0.291   0.295   0.299   0.304   0.301   0.297   0.307   0.298   0.299   0.294   0.295   0.286   0.291   0.293   0.310   0.300   0.295   0.294   0.291
   117.25    0.302   0.298   0.309   0.304   0.305   0.287   0.284   0.290   0.298   0.293   0.298   0.293   0.282   0.287   0.280   0.293   0.286   0.278   0.288   0.291   0.305   0.305   0.305   0.302   0.298   0.302   0.305   0.292   0.286   0.292   0.303   0.299   0.285   0.289   0.301
   112.60    0.293   0.294   0.302   0.302   0.303   0.295   0.287   0.286   0.286   0.293   0.284   0.278   0.286   0.286   0.294   0.298   0.290   0.285   0.297   0.295   0.303   0.303   0.313   0.307   0.307   0.313   0.306   0.294   0.295   0.301   0.284   0.291   0.290   0.286   0.296
   107.95    0.302   0.303   0.306   0.297   0.292   0.296   0.291   0.285   0.289   0.277   0.281   0.286   0.275   0.278   0.282   0.290   0.291   0.290   0.288   0.294   0.297   0.300   0.310   0.297   0.298   0.303   0.304   0.294   0.307   0.302   0.287   0.286   0.288   0.282   0.286
   103.30    0.299   0.303   0.298   0.296   0.290   0.292   0.289   0.281   0.285   0.280   0.279   0.280   0.283   0.272   0.286   0.293   0.292   0.292   0.291   0.295   0.282   0.291   0.292   0.297   0.296   0.311   0.303   0.311   0.300   0.310   0.299   0.281   0.282   0.284   0.297
    98.65    0.288   0.288   0.278   0.279   0.287   0.290   0.278   0.276   0.274   0.275   0.278   0.285   0.274   0.281   0.283   0.291   0.295   0.294   0.292   0.285   0.297   0.292   0.289   0.283   0.296   0.305   0.299   0.297   0.292   0.299   0.288   0.286   0.299   0.288   0.300
    94.00    0.286   0.288   0.283   0.280   0.278   0.273   0.265   0.276   0.269   0.280   0.276   0.278   0.284   0.286   0.285   0.295   0.286   0.286   0.288   0.291   0.307   0.294   0.286   0.274   0.292   0.299   0.298   0.286   0.291   0.285   0.280   0.302   0.291   0.296   0.301
    89.35    0.293   0.291   0.283   0.284   0.264   0.259   0.273   0.272   0.283   0.276   0.279   0.286   0.281   0.291   0.285   0.285   0.294   0.281   0.283   0.300   0.294   0.274   0.280   0.290   0.296   0.291   0.282   0.281   0.289   0.294   0.295   0.295   0.296   0.296   0.291
    84.70    0.290   0.289   0.287   0.285   0.276   0.270   0.274   0.275   0.280   0.278   0.286   0.286   0.290   0.288   0.285   0.290   0.300   0.300   0.279   0.286   0.289   0.271   0.280   0.276   0.275   0.291   0.279   0.273   0.274   0.275   0.302   0.295   0.298   0.282   0.289
    80.05    0.297   0.296   0.275   0.281   0.274   0.274   0.277   0.276   0.275   0.280   0.280   0.278   0.281   0.284   0.286   0.296   0.296   0.295   0.296   0.291   0.292   0.276   0.274   0.270   0.275   0.282   0.277   0.279   0.276   0.289   0.296   0.298   0.293   0.292   0.300
    75.40    0.289   0.278   0.281   0.276   0.275   0.275   0.282   0.277   0.285   0.287   0.279   0.289   0.268   0.277   0.289   0.280   0.289   0.295   0.293   0.289   0.284   0.273   0.281   0.288   0.276   0.282   0.278   0.284   0.274   0.294   0.289   0.288   0.288   0.289   0.295
    70.75    0.288   0.286   0.290   0.274   0.261   0.273   0.277   0.287   0.291   0.283   0.297   0.280   0.267   0.273   0.289   0.277   0.291   0.287   0.289   0.285   0.276   0.281   0.284   0.287   0.286   0.280   0.289   0.281   0.266   0.285   0.290   0.293   0.283   0.281   0.289
    66.10    0.296   0.304   0.300   0.289   0.278   0.293   0.290   0.305   0.302   0.295   0.285   0.290   0.284   0.284   0.287   0.274   0.296   0.288   0.287   0.276   0.280   0.272   0.273   0.291   0.285   0.286   0.274   0.265   0.269   0.277   0.282   0.278   0.273   0.292   0.289
    61.45    0.298   0.307   0.295   0.291   0.278   0.287   0.291   0.300   0.305   0.306   0.290   0.298   0.299   0.293   0.283   0.289   0.286   0.279   0.277   0.286   0.274   0.268   0.285   0.294   0.290   0.289   0.278   0.276   0.276   0.280   0.283   0.275   0.281   0.286   0.286
    56.80    0.295   0.298   0.296   0.296   0.285   0.282   0.293   0.298   0.298   0.298   0.307   0.287   0.294   0.286   0.289   0.285   0.288   0.291   0.292   0.283   0.288   0.269   0.286   0.297   0.299   0.283   0.298   0.289   0.277   0.284   0.284   0.286   0.286   0.292   0.281
    52.15    0.288   0.285   0.290   0.303   0.304   0.286   0.302   0.297   0.302   0.297   0.292   0.288   0.291   0.300   0.294   0.293   0.295   0.299   0.283   0.296   0.283   0.287   0.290   0.304   0.297   0.290   0.308   0.303   0.286   0.285   0.282   0.284   0.278   0.288   0.274
    47.50    0.272   0.275   0.277   0.288   0.283   0.296   0.299   0.291   0.288   0.289   0.285   0.299   0.283   0.294   0.293   0.288   0.307   0.298   0.289   0.289   0.303   0.306   0.295   0.305   0.304   0.289   0.305   0.304   0.278   0.275   0.282   0.283   0.280   0.279   0.273
    42.85    0.278   0.273   0.279   0.282   0.274   0.291   0.293   0.287   0.295   0.293   0.299   0.309   0.305   0.300   0.299   0.295   0.294   0.305   0.303   0.306   0.297   0.302   0.319   0.307   0.312   0.296   0.285   0.294   0.270   0.286   0.279   0.283   0.283   0.289   0.280
    38.20    0.282   0.286   0.279   0.285   0.290   0.289   0.293   0.275   0.285   0.287   0.304   0.310   0.307   0.302   0.293   0.300   0.293   0.291   0.295   0.291   0.300   0.297   0.306   0.311   0.321   0.301   0.282   0.285   0.294   0.285   0.284   0.282   0.277   0.272   0.282
    33.55    0.286   0.294   0.296   0.291   0.293   0.284   0.287   0.269   0.287   0.314   0.299   0.290   0.306   0.296   0.295   0.306   0.285   0.290   0.278   0.287   0.299   0.298   0.300   0.305   0.312   0.299   0.285   0.292   0.293   0.303   0.304   0.280   0.277   0.275   0.287
    28.90    0.293   0.293   0.296   0.292   0.299   0.286   0.272   0.279   0.289   0.309   0.296   0.297   0.298   0.305   0.305   0.290   0.281   0.285   0.291   0.298   0.309   0.302   0.305   0.308   0.299   0.293   0.288   0.285   0.288   0.289   0.296   0.282   0.287   0.281   0.288
    24.25    0.300   0.299   0.288   0.285   0.304   0.294   0.293   0.286   0.300   0.312   0.301   0.294   0.295   0.299   0.302   0.299   0.298   0.282   0.299   0.312   0.302   0.294   0.292   0.292   0.295   0.287   0.274   0.282   0.277   0.282   0.284   0.290   0.285   0.289   0.289
    19.60    0.297   0.289   0.293   0.296   0.310   0.315   0.294   0.293   0.304   0.297   0.304   0.296   0.296   0.312   0.303   0.301   0.304   0.285   0.289   0.297   0.313   0.297   0.307   0.285   0.286   0.289   0.290   0.285   0.282   0.279   0.286   0.297   0.301   0.309   0.320
    14.95    0.292   0.301   0.307   0.322   0.319   0.311   0.301   0.282   0.292   0.294   0.294   0.291   0.289   0.287   0.296   0.297   0.285   0.284   0.294   0.303   0.303   0.290   0.277   0.293   0.283   0.281   0.281   0.283   0.273   0.281   0.296   0.293   0.290   0.307   0.310
    10.30    0.308   0.314   0.310   0.321   0.320   0.306   0.295   0.296   0.293   0.288   0.297   0.286   0.290   0.296   0.292   0.281   0.274   0.272   0.292   0.300   0.302   0.280   0.286   0.286   0.285   0.274   0.278   0.272   0.284   0.279   0.285   0.288   0.285   0.298   0.309
     5.65    0.302   0.307   0.320   0.326   0.332   0.299   0.302   0.295   0.288   0.292   0.308   0.293   0.299   0.303   0.295   0.292   0.292   0.288   0.291   0.300   0.301   0.293   0.280   0.277   0.276   0.275   0.282   0.288   0.296   0.274   0.282   0.276   0.279   0.291   0.296
     1.00    0.289   0.297   0.310   0.316   0.317   0.305   0.307   0.299   0.305   0.305   0.316   0.302   0.291   0.303   0.298   0.293   0.298   0.303   0.301   0.305   0.302   0.287   0.285   0.281   0.277   0.290   0.285   0.290   0.292   0.281   0.287   0.283   0.288   0.292   0.301

   Mean standard deviation across all grid points:
      u component:    0.464 m/s
      v component:    0.491 m/s
      w component:    0.292 m/s


U-component (X) statistics from the interpolated hub point:

   Mean =   9.9913 m/s
   TI   =   4.0946 %


Processing complete.  5629.2 CPU seconds used.
