
This summary file was generated by TurbSim (from OpenFAST-v3.5.3) on 20-Apr-2025 at 08:13:29.


Runtime Options:

**********  Random seed #1
    RANLUX  Type of random number generator
         F  Output binary HH turbulence parameters?
         F  Output formatted turbulence parameters?
         F  Output AeroDyn HH files?
         T  Output AeroDyn FF files?
         F  Output BLADED FF files?
         F  Output tower data?
         F  Output HAWC FF files?
         F  Output formatted FF files?
         T  Output coherent turbulence time step file?
 0 -  NONE  IEC turbulence models scaled to exact specified standard deviation


Turbine/Model Specifications:

        37  Vertical grid-point matrix dimension
        35  Horizontal grid-point matrix dimension
     0.250  Time step [seconds]
   900.000  Analysis time [seconds]
   900.000  Usable output time [seconds]
    89.350  Hub height [m]
   167.400  Grid height [m]
   158.100  Grid width [m]
     0.000  Vertical flow angle [degrees]
     0.000  Horizontal flow angle [degrees]


Meteorological Boundary Conditions:

    TIMESR  User-input time series spectral model
       N/A  IEC standard
       N/A  IEC turbulence characteristic
       N/A  IEC turbulence type
       N/A  IEC Extreme Turbulence Model (ETM) "c" parameter [m/s]
       PL   Wind profile type
    90.000  Reference height [m]
    10.000  Reference wind speed [m/s]
       N/A  Jet height [m]
     0.120  Power law exponent
     0.030  Surface roughness length [m]


Non-IEC Meteorological Boundary Conditions:

    45.000  Site latitude [degrees]
     0.050  Gradient Richardson number
     0.480  Friction or shear velocity [m/s]
       N/A  Mixing layer depth [m]
       N/A  Mean hub u'w' Reynolds stress
       N/A  Mean hub u'v' Reynolds stress
       N/A  Mean hub v'w' Reynolds stress


Spatial Coherence Models:

       IEC  u-component coherence model
       IEC  v-component coherence model
       IEC  w-component coherence model
(   12.000, 0.353E-03)  u-component coherence parameters
(   12.000, 0.353E-03)  v-component coherence parameters
(   12.000, 0.353E-03)  w-component coherence parameters
       N/A  Coherence exponent


Coherent Turbulence Scaling Parameters:

.\EventData
            Name of the path containing the coherent turbulence data files
       les  Type of coherent turbulence data files
     1.000  Disturbance scale (ratio of wave height to rotor diameter)
     0.500  Fractional location of tower centerline from right
     0.500  Fractional location of hub height from the bottom of the dataset
    30.000  Minimum start time for coherent structures [seconds]


Profiles from User-Defined Time-Series Input:

  Height   Wind Speed   Horizontal Angle   Vertical Angle
   (m)        (m/s)          (deg)              (deg)    
  ------   ----------   ----------------   --------------
   94.00      10.00          -0.63                0.00


You have requested that the following file(s) be generated:

   /kfs3/scratch/agupta/Projects/RL_Incubator/FinalRuns_Veer/Seed4/./FFSim_Seed4/Cond00_v10.0_PL0.12_TI5.0/Case2_wdirp04/Seed_2/TurbSim/HighT15.bts (AeroDyn/TurbSim full-field wind file)


Turbulence Simulation Scaling Parameter Summary:

   Turbulence model used                            =  User-input time series
   Gradient Richardson number                       =    0.050
   Monin-Obukhov (M-O) z/L parameter                =    0.067
   Monin-Obukhov (M-O) length scale                 = 1340.250 m
   Mean wind speed at hub height                    =    9.991 m/s

   Wind profile type                                =  Power law
   Power law exponent                               =    0.120
   Mean shear across rotor disk                     =    0.019 (m/s)/m
   Assumed rotor diameter                           =  158.100 m
   Surface roughness length                         =    0.030 m

   Nyquist frequency of turbulent wind field        =    2.000 Hz

   Number of time steps in the FFT                  =     3600
   Number of time steps output                      =     3600
   Number of points simulated                       =     1296


Mean Flow Angles:

   Vertical   =   0.0 degrees
   Horizontal =   0.0 degrees

Mean Wind Speed Profile:

   Height    Wind Speed   Horizontal Angle  Vertical Angle  U-comp (X)   V-comp (Y)   W-comp (Z)
     (m)        (m/s)         (degrees)       (degrees)       (m/s)        (m/s)        (m/s)   
   ------    ----------   ----------------  --------------  ----------   ----------   ----------
    168.4       10.78            0.00            0.00         10.78         0.00         0.00
    163.7       10.74            0.00            0.00         10.74         0.00         0.00
    159.1       10.71            0.00            0.00         10.71         0.00         0.00
    154.4       10.67            0.00            0.00         10.67         0.00         0.00
    149.8       10.63            0.00            0.00         10.63         0.00         0.00
    145.1       10.59            0.00            0.00         10.59         0.00         0.00
    140.5       10.55            0.00            0.00         10.55         0.00         0.00
    135.8       10.51            0.00            0.00         10.51         0.00         0.00
    131.2       10.46            0.00            0.00         10.46         0.00         0.00
    126.5       10.42            0.00            0.00         10.42         0.00         0.00
    121.9       10.37            0.00            0.00         10.37         0.00         0.00
    117.2       10.32            0.00            0.00         10.32         0.00         0.00
    112.6       10.27            0.00            0.00         10.27         0.00         0.00
    107.9       10.22            0.00            0.00         10.22         0.00         0.00
    103.3       10.17            0.00            0.00         10.17         0.00         0.00
     98.6       10.11            0.00            0.00         10.11         0.00         0.00
     94.0       10.05            0.00            0.00         10.05         0.00         0.00
     89.3        9.99            0.00            0.00          9.99         0.00         0.00
     84.7        9.93            0.00            0.00          9.93         0.00         0.00
     80.0        9.86            0.00            0.00          9.86         0.00         0.00
     75.4        9.79            0.00            0.00          9.79         0.00         0.00
     70.7        9.72            0.00            0.00          9.72         0.00         0.00
     66.1        9.64            0.00            0.00          9.64         0.00         0.00
     61.4        9.55            0.00            0.00          9.55         0.00         0.00
     56.8        9.46            0.00            0.00          9.46         0.00         0.00
     52.1        9.37            0.00            0.00          9.37         0.00         0.00
     47.5        9.26            0.00            0.00          9.26         0.00         0.00
     42.8        9.15            0.00            0.00          9.15         0.00         0.00
     38.2        9.02            0.00            0.00          9.02         0.00         0.00
     33.5        8.88            0.00            0.00          8.88         0.00         0.00
     28.9        8.73            0.00            0.00          8.73         0.00         0.00
     24.2        8.54            0.00            0.00          8.54         0.00         0.00
     19.6        8.33            0.00            0.00          8.33         0.00         0.00
     14.9        8.06            0.00            0.00          8.06         0.00         0.00
     10.3        7.71            0.00            0.00          7.71         0.00         0.00
      5.6        7.17            0.00            0.00          7.17         0.00         0.00
      1.0        5.83            0.00            0.00          5.83         0.00         0.00


Harvested Random Seeds after Generation of the Random Numbers:

     65026800 K 1
            0 K 2


Hub-Height Simulated Turbulence Statistical Summary:

   Type of Wind        Min (m/s)   Mean (m/s)    Max (m/s)  Sigma (m/s)       TI (%)
   ----------------    ---------   ----------    ---------  -----------       ------
   Longitudinal (u)         8.39         9.99        11.53        0.478        4.782
   Lateral (v)             -1.11        -0.00         0.92        0.349        3.496
   Vertical (w)            -0.94         0.00         0.74        0.248        2.485
   U component              8.39         9.99        11.53        0.478        4.782
   V component             -1.11        -0.00         0.92        0.349        3.496
   W component             -0.94         0.00         0.74        0.248        2.485
   Horizontal (U&V)         8.40        10.00        11.54        0.476        4.766
   Total                    8.40        10.00        11.54        0.476        4.761

                       Min Reynolds     Mean Reynolds    Max Reynolds    Correlation
   Product             Stress (m/s)^2   Stress (m/s)^2   Stress (m/s)^2  Coefficient
   ----------------    --------------   --------------   --------------  -----------
   u'w'                     -0.502             0.018             0.828         0.152
   u'v'                     -0.607             0.025             1.164         0.152
   v'w'                     -0.518             0.003             0.782         0.039


   Friction Velocity (Ustar)  =      0.134 m/s
   Maximum Instantaneous TKE  =      1.481 (m/s)^2
   Maximum Instantaneous CTKE =      0.582 (m/s)^2


Grid Point Variance Summary:

   Y-coord  -79.05  -74.40  -69.75  -65.10  -60.45  -55.80  -51.15  -46.50  -41.85  -37.20  -32.55  -27.90  -23.25  -18.60  -13.95   -9.30   -4.65    0.00    4.65    9.30   13.95   18.60   23.25   27.90   32.55   37.20   41.85   46.50   51.15   55.80   60.45   65.10   69.75   74.40   79.05

   Height   Standard deviation at grid points for the u component:
   168.40    0.402   0.406   0.414   0.412   0.438   0.457   0.432   0.408   0.407   0.421   0.435   0.437   0.441   0.444   0.421   0.451   0.424   0.429   0.404   0.422   0.392   0.414   0.428   0.450   0.427   0.423   0.407   0.396   0.399   0.391   0.431   0.418   0.391   0.415   0.448
   163.75    0.395   0.406   0.439   0.449   0.441   0.432   0.430   0.394   0.431   0.412   0.456   0.440   0.442   0.424   0.427   0.435   0.457   0.442   0.426   0.417   0.426   0.379   0.402   0.408   0.413   0.382   0.412   0.400   0.406   0.416   0.409   0.419   0.427   0.436   0.458
   159.10    0.402   0.386   0.437   0.426   0.434   0.434   0.413   0.404   0.432   0.430   0.454   0.452   0.440   0.444   0.422   0.452   0.445   0.463   0.451   0.425   0.434   0.410   0.379   0.381   0.399   0.385   0.406   0.413   0.435   0.399   0.402   0.398   0.409   0.411   0.431
   154.45    0.393   0.400   0.434   0.432   0.448   0.457   0.406   0.409   0.424   0.477   0.452   0.443   0.465   0.460   0.455   0.469   0.464   0.479   0.446   0.399   0.409   0.408   0.389   0.386   0.403   0.407   0.410   0.405   0.418   0.395   0.374   0.385   0.412   0.400   0.411
   149.80    0.439   0.418   0.439   0.455   0.442   0.432   0.419   0.439   0.436   0.482   0.482   0.450   0.474   0.487   0.454   0.463   0.492   0.481   0.426   0.437   0.437   0.420   0.409   0.381   0.412   0.405   0.409   0.438   0.411   0.379   0.387   0.392   0.410   0.422   0.412
   145.15    0.442   0.432   0.451   0.456   0.467   0.456   0.462   0.483   0.485   0.486   0.493   0.491   0.496   0.507   0.488   0.504   0.505   0.473   0.438   0.436   0.421   0.432   0.396   0.414   0.430   0.443   0.420   0.432   0.431   0.395   0.398   0.389   0.393   0.401   0.388
   140.50    0.431   0.438   0.450   0.461   0.494   0.494   0.491   0.505   0.498   0.507   0.500   0.517   0.512   0.512   0.484   0.470   0.485   0.501   0.466   0.470   0.454   0.438   0.414   0.396   0.444   0.442   0.422   0.432   0.412   0.411   0.395   0.399   0.396   0.414   0.399
   135.85    0.448   0.448   0.490   0.474   0.474   0.511   0.507   0.491   0.511   0.507   0.512   0.498   0.515   0.475   0.486   0.472   0.507   0.465   0.489   0.488   0.483   0.450   0.424   0.439   0.454   0.445   0.435   0.400   0.399   0.409   0.394   0.419   0.439   0.414   0.418
   131.20    0.453   0.455   0.482   0.452   0.456   0.497   0.483   0.486   0.513   0.520   0.514   0.494   0.487   0.507   0.480   0.485   0.500   0.494   0.477   0.494   0.490   0.475   0.470   0.469   0.446   0.435   0.449   0.430   0.432   0.410   0.415   0.413   0.418   0.399   0.404
   126.55    0.473   0.450   0.456   0.462   0.462   0.482   0.470   0.489   0.508   0.494   0.506   0.517   0.491   0.508   0.513   0.506   0.501   0.476   0.486   0.482   0.485   0.478   0.470   0.464   0.439   0.453   0.456   0.459   0.441   0.408   0.416   0.424   0.414   0.433   0.424
   121.90    0.473   0.480   0.467   0.466   0.433   0.456   0.435   0.506   0.517   0.507   0.506   0.512   0.480   0.508   0.524   0.488   0.504   0.473   0.498   0.506   0.467   0.457   0.450   0.432   0.477   0.446   0.455   0.447   0.443   0.414   0.420   0.440   0.448   0.427   0.458
   117.25    0.529   0.507   0.491   0.475   0.471   0.430   0.469   0.499   0.493   0.487   0.506   0.481   0.471   0.497   0.496   0.489   0.493   0.501   0.485   0.505   0.464   0.449   0.438   0.441   0.471   0.473   0.451   0.443   0.440   0.437   0.430   0.423   0.448   0.451   0.468
   112.60    0.516   0.480   0.479   0.463   0.461   0.468   0.481   0.467   0.488   0.464   0.488   0.504   0.483   0.478   0.475   0.508   0.470   0.488   0.480   0.502   0.470   0.440   0.458   0.443   0.467   0.474   0.450   0.468   0.438   0.432   0.437   0.430   0.463   0.473   0.477
   107.95    0.509   0.488   0.471   0.439   0.429   0.458   0.470   0.490   0.499   0.472   0.506   0.498   0.455   0.467   0.465   0.498   0.490   0.470   0.491   0.471   0.461   0.461   0.436   0.414   0.460   0.480   0.492   0.485   0.466   0.450   0.441   0.477   0.488   0.493   0.461
   103.30    0.484   0.494   0.490   0.468   0.440   0.438   0.436   0.474   0.480   0.481   0.474   0.471   0.480   0.484   0.499   0.493   0.472   0.486   0.507   0.478   0.486   0.470   0.470   0.440   0.484   0.478   0.431   0.434   0.451   0.425   0.454   0.475   0.484   0.494   0.494
    98.65    0.524   0.501   0.490   0.468   0.438   0.476   0.461   0.466   0.459   0.488   0.482   0.507   0.473   0.475   0.501   0.490   0.485   0.478   0.497   0.468   0.467   0.447   0.457   0.472   0.498   0.481   0.417   0.417   0.442   0.443   0.448   0.473   0.473   0.477   0.500
    94.00    0.481   0.475   0.457   0.474   0.461   0.463   0.463   0.459   0.477   0.479   0.470   0.497   0.522   0.483   0.516   0.510   0.474   0.455   0.479   0.441   0.480   0.476   0.478   0.465   0.487   0.455   0.451   0.448   0.456   0.467   0.476   0.494   0.499   0.486   0.508
    89.35    0.477   0.448   0.443   0.447   0.451   0.450   0.452   0.470   0.471   0.492   0.466   0.515   0.519   0.518   0.511   0.501   0.492   0.478   0.475   0.470   0.490   0.487   0.482   0.489   0.504   0.484   0.465   0.453   0.482   0.477   0.489   0.511   0.527   0.501   0.522
    84.70    0.473   0.471   0.457   0.461   0.450   0.445   0.454   0.476   0.502   0.471   0.474   0.500   0.508   0.525   0.522   0.516   0.479   0.475   0.432   0.459   0.475   0.479   0.472   0.492   0.490   0.483   0.488   0.489   0.508   0.506   0.522   0.526   0.541   0.502   0.531
    80.05    0.475   0.481   0.471   0.466   0.486   0.448   0.472   0.475   0.491   0.483   0.465   0.479   0.473   0.493   0.510   0.498   0.475   0.446   0.426   0.454   0.440   0.461   0.485   0.508   0.505   0.472   0.492   0.516   0.504   0.483   0.515   0.529   0.524   0.516   0.536
    75.40    0.492   0.488   0.459   0.456   0.477   0.459   0.477   0.471   0.457   0.506   0.493   0.483   0.488   0.499   0.505   0.496   0.455   0.420   0.429   0.451   0.432   0.469   0.491   0.530   0.505   0.494   0.511   0.505   0.507   0.492   0.505   0.511   0.491   0.516   0.519
    70.75    0.490   0.492   0.474   0.456   0.459   0.469   0.479   0.470   0.468   0.486   0.497   0.505   0.489   0.489   0.503   0.459   0.420   0.408   0.412   0.387   0.413   0.441   0.486   0.523   0.532   0.541   0.525   0.564   0.545   0.540   0.534   0.492   0.492   0.506   0.519
    66.10    0.522   0.513   0.493   0.475   0.451   0.468   0.474   0.479   0.489   0.477   0.475   0.476   0.479   0.473   0.476   0.470   0.434   0.419   0.423   0.414   0.433   0.434   0.484   0.497   0.521   0.533   0.533   0.554   0.553   0.546   0.556   0.541   0.497   0.508   0.529
    61.45    0.499   0.534   0.526   0.484   0.458   0.456   0.455   0.465   0.465   0.467   0.448   0.449   0.458   0.447   0.464   0.476   0.452   0.428   0.439   0.427   0.455   0.460   0.500   0.531   0.564   0.575   0.568   0.534   0.544   0.547   0.536   0.538   0.498   0.507   0.508
    56.80    0.538   0.524   0.505   0.473   0.479   0.464   0.443   0.470   0.469   0.433   0.459   0.452   0.421   0.430   0.443   0.461   0.448   0.464   0.444   0.443   0.470   0.511   0.540   0.549   0.567   0.567   0.569   0.519   0.518   0.511   0.527   0.520   0.507   0.517   0.505
    52.15    0.533   0.524   0.507   0.488   0.468   0.484   0.439   0.471   0.459   0.435   0.473   0.438   0.445   0.395   0.426   0.441   0.454   0.460   0.472   0.482   0.479   0.542   0.551   0.573   0.554   0.576   0.543   0.518   0.532   0.519   0.512   0.505   0.518   0.540   0.536
    47.50    0.496   0.490   0.504   0.474   0.464   0.472   0.474   0.484   0.474   0.458   0.449   0.434   0.435   0.424   0.410   0.421   0.454   0.481   0.486   0.480   0.517   0.536   0.568   0.571   0.542   0.566   0.559   0.563   0.558   0.571   0.542   0.513   0.543   0.550   0.534
    42.85    0.496   0.474   0.478   0.504   0.468   0.441   0.479   0.468   0.455   0.430   0.430   0.429   0.418   0.404   0.407   0.412   0.448   0.476   0.476   0.482   0.511   0.541   0.535   0.534   0.553   0.578   0.593   0.587   0.578   0.573   0.536   0.528   0.555   0.536   0.549
    38.20    0.455   0.457   0.452   0.481   0.468   0.475   0.468   0.464   0.424   0.430   0.437   0.425   0.408   0.420   0.450   0.446   0.459   0.475   0.483   0.483   0.490   0.504   0.536   0.553   0.566   0.574   0.600   0.579   0.592   0.537   0.523   0.549   0.542   0.517   0.557
    33.55    0.450   0.439   0.445   0.430   0.433   0.455   0.443   0.425   0.414   0.438   0.451   0.435   0.419   0.436   0.443   0.464   0.468   0.474   0.495   0.470   0.486   0.486   0.521   0.530   0.567   0.577   0.573   0.575   0.562   0.533   0.527   0.551   0.560   0.538   0.555
    28.90    0.410   0.409   0.420   0.429   0.440   0.438   0.440   0.420   0.428   0.437   0.440   0.417   0.424   0.439   0.438   0.480   0.499   0.491   0.487   0.471   0.489   0.533   0.512   0.512   0.549   0.581   0.563   0.558   0.564   0.549   0.555   0.545   0.567   0.542   0.552
    24.25    0.420   0.377   0.395   0.398   0.421   0.433   0.437   0.413   0.416   0.439   0.441   0.440   0.441   0.424   0.435   0.497   0.495   0.503   0.503   0.489   0.500   0.531   0.547   0.520   0.534   0.564   0.551   0.584   0.586   0.580   0.555   0.551   0.546   0.539   0.557
    19.60    0.420   0.394   0.400   0.382   0.398   0.425   0.426   0.413   0.434   0.433   0.412   0.433   0.438   0.446   0.461   0.491   0.503   0.467   0.491   0.499   0.510   0.527   0.547   0.499   0.533   0.554   0.537   0.535   0.542   0.547   0.549   0.528   0.548   0.548   0.570
    14.95    0.410   0.414   0.421   0.417   0.429   0.420   0.422   0.422   0.406   0.412   0.446   0.459   0.461   0.461   0.450   0.461   0.471   0.465   0.490   0.517   0.494   0.545   0.502   0.511   0.523   0.554   0.528   0.506   0.522   0.537   0.508   0.530   0.531   0.562   0.567
    10.30    0.454   0.420   0.430   0.439   0.424   0.394   0.435   0.442   0.452   0.459   0.443   0.489   0.451   0.454   0.428   0.436   0.455   0.440   0.472   0.513   0.521   0.541   0.513   0.505   0.530   0.551   0.519   0.508   0.518   0.507   0.517   0.546   0.544   0.548   0.563
     5.65    0.445   0.420   0.451   0.436   0.418   0.414   0.417   0.418   0.455   0.469   0.503   0.502   0.471   0.463   0.463   0.415   0.410   0.451   0.497   0.487   0.508   0.519   0.499   0.501   0.531   0.526   0.529   0.528   0.535   0.524   0.494   0.557   0.543   0.534   0.575
     1.00    0.440   0.462   0.464   0.453   0.419   0.397   0.396   0.397   0.420   0.463   0.509   0.488   0.505   0.469   0.457   0.444   0.425   0.453   0.463   0.475   0.493   0.481   0.494   0.512   0.543   0.522   0.538   0.556   0.521   0.522   0.510   0.551   0.531   0.549   0.555

   Height   Standard deviation at grid points for the v component:
   168.40    0.359   0.349   0.353   0.355   0.359   0.367   0.359   0.336   0.339   0.356   0.345   0.340   0.350   0.354   0.326   0.339   0.354   0.356   0.365   0.369   0.384   0.383   0.378   0.373   0.383   0.385   0.375   0.371   0.370   0.368   0.414   0.390   0.392   0.391   0.362
   163.75    0.337   0.339   0.369   0.366   0.359   0.365   0.336   0.337   0.357   0.355   0.343   0.353   0.352   0.351   0.340   0.350   0.369   0.360   0.355   0.365   0.378   0.377   0.371   0.363   0.380   0.378   0.355   0.362   0.355   0.375   0.394   0.386   0.371   0.371   0.384
   159.10    0.335   0.354   0.372   0.387   0.378   0.374   0.364   0.357   0.356   0.358   0.367   0.350   0.343   0.350   0.341   0.358   0.368   0.373   0.353   0.364   0.379   0.369   0.375   0.371   0.370   0.374   0.374   0.371   0.366   0.372   0.369   0.379   0.362   0.372   0.381
   154.45    0.332   0.348   0.368   0.360   0.377   0.382   0.368   0.370   0.356   0.370   0.365   0.365   0.352   0.363   0.352   0.345   0.351   0.365   0.363   0.382   0.377   0.383   0.379   0.389   0.377   0.379   0.371   0.369   0.373   0.374   0.382   0.365   0.386   0.358   0.378
   149.80    0.333   0.326   0.364   0.360   0.358   0.364   0.371   0.348   0.329   0.353   0.370   0.353   0.352   0.352   0.338   0.324   0.337   0.349   0.351   0.371   0.372   0.399   0.387   0.397   0.408   0.393   0.387   0.378   0.393   0.375   0.384   0.375   0.382   0.384   0.389
   145.15    0.326   0.337   0.349   0.358   0.358   0.355   0.344   0.337   0.333   0.349   0.347   0.348   0.349   0.324   0.339   0.330   0.316   0.346   0.338   0.351   0.360   0.376   0.392   0.396   0.399   0.383   0.390   0.364   0.362   0.383   0.392   0.379   0.380   0.391   0.417
   140.50    0.329   0.333   0.334   0.345   0.350   0.351   0.343   0.335   0.335   0.340   0.348   0.340   0.324   0.310   0.324   0.325   0.344   0.345   0.348   0.345   0.339   0.356   0.391   0.389   0.388   0.385   0.381   0.356   0.351   0.376   0.387   0.402   0.381   0.395   0.408
   135.85    0.347   0.348   0.335   0.339   0.335   0.337   0.343   0.347   0.340   0.350   0.352   0.338   0.324   0.318   0.323   0.344   0.337   0.342   0.343   0.348   0.341   0.345   0.364   0.370   0.396   0.384   0.374   0.367   0.390   0.381   0.379   0.381   0.400   0.406   0.393
   131.20    0.340   0.338   0.338   0.339   0.326   0.323   0.333   0.342   0.330   0.337   0.341   0.316   0.323   0.323   0.321   0.334   0.343   0.362   0.338   0.348   0.344   0.353   0.364   0.367   0.384   0.368   0.361   0.375   0.380   0.374   0.385   0.392   0.391   0.402   0.383
   126.55    0.332   0.338   0.325   0.331   0.305   0.339   0.339   0.327   0.323   0.320   0.326   0.322   0.319   0.319   0.328   0.326   0.355   0.371   0.347   0.343   0.335   0.345   0.370   0.382   0.374   0.363   0.365   0.373   0.373   0.383   0.401   0.396   0.378   0.376   0.375
   121.90    0.338   0.339   0.344   0.334   0.316   0.332   0.343   0.333   0.337   0.319   0.324   0.316   0.317   0.320   0.322   0.324   0.346   0.361   0.359   0.358   0.345   0.356   0.360   0.369   0.376   0.359   0.354   0.357   0.378   0.389   0.390   0.373   0.393   0.382   0.380
   117.25    0.325   0.332   0.333   0.342   0.329   0.328   0.335   0.350   0.333   0.327   0.327   0.323   0.332   0.322   0.309   0.327   0.336   0.345   0.345   0.352   0.334   0.353   0.356   0.347   0.364   0.346   0.367   0.353   0.371   0.378   0.377   0.371   0.376   0.379   0.381
   112.60    0.337   0.335   0.351   0.336   0.317   0.315   0.326   0.321   0.313   0.310   0.333   0.318   0.317   0.342   0.330   0.331   0.325   0.321   0.345   0.363   0.350   0.351   0.356   0.361   0.365   0.361   0.383   0.386   0.374   0.382   0.366   0.365   0.364   0.364   0.372
   107.95    0.322   0.336   0.334   0.337   0.327   0.327   0.325   0.337   0.333   0.321   0.337   0.317   0.324   0.338   0.342   0.336   0.332   0.331   0.339   0.343   0.337   0.335   0.347   0.374   0.385   0.370   0.377   0.393   0.383   0.388   0.369   0.371   0.350   0.368   0.372
   103.30    0.328   0.339   0.339   0.353   0.338   0.334   0.328   0.340   0.332   0.335   0.327   0.317   0.321   0.335   0.361   0.349   0.349   0.345   0.346   0.335   0.330   0.332   0.334   0.355   0.373   0.396   0.400   0.402   0.399   0.377   0.381   0.396   0.366   0.352   0.360
    98.65    0.355   0.351   0.353   0.348   0.334   0.344   0.341   0.331   0.332   0.319   0.311   0.316   0.343   0.342   0.359   0.372   0.377   0.369   0.347   0.326   0.335   0.344   0.339   0.367   0.377   0.395   0.393   0.400   0.397   0.395   0.385   0.379   0.353   0.348   0.364
    94.00    0.363   0.365   0.385   0.368   0.344   0.333   0.342   0.344   0.320   0.320   0.325   0.329   0.341   0.371   0.371   0.380   0.378   0.370   0.364   0.333   0.342   0.338   0.360   0.361   0.380   0.392   0.381   0.380   0.391   0.384   0.370   0.377   0.352   0.367   0.368
    89.35    0.373   0.373   0.365   0.358   0.353   0.330   0.345   0.344   0.341   0.334   0.326   0.328   0.346   0.362   0.363   0.378   0.364   0.349   0.360   0.354   0.347   0.346   0.356   0.368   0.357   0.376   0.372   0.372   0.386   0.374   0.380   0.375   0.371   0.373   0.392
    84.70    0.382   0.384   0.367   0.355   0.364   0.330   0.338   0.350   0.328   0.300   0.304   0.330   0.338   0.341   0.384   0.398   0.387   0.373   0.361   0.352   0.360   0.352   0.352   0.363   0.374   0.358   0.352   0.361   0.375   0.360   0.357   0.364   0.365   0.367   0.379
    80.05    0.372   0.356   0.349   0.341   0.350   0.334   0.330   0.337   0.347   0.318   0.317   0.324   0.333   0.352   0.373   0.360   0.370   0.366   0.356   0.358   0.346   0.346   0.367   0.365   0.356   0.348   0.364   0.358   0.352   0.365   0.344   0.363   0.373   0.357   0.359
    75.40    0.370   0.356   0.338   0.338   0.343   0.356   0.330   0.333   0.336   0.338   0.336   0.355   0.335   0.339   0.345   0.354   0.367   0.353   0.362   0.389   0.374   0.379   0.374   0.358   0.368   0.350   0.360   0.374   0.350   0.359   0.344   0.350   0.362   0.359   0.366
    70.75    0.360   0.360   0.334   0.328   0.326   0.338   0.332   0.333   0.321   0.345   0.345   0.348   0.347   0.352   0.358   0.361   0.366   0.359   0.357   0.385   0.376   0.387   0.391   0.368   0.343   0.370   0.372   0.360   0.358   0.354   0.345   0.349   0.349   0.362   0.358
    66.10    0.357   0.355   0.341   0.336   0.341   0.343   0.334   0.324   0.330   0.359   0.362   0.349   0.348   0.364   0.355   0.352   0.359   0.354   0.362   0.379   0.394   0.379   0.401   0.370   0.359   0.361   0.367   0.350   0.336   0.361   0.355   0.344   0.346   0.362   0.352
    61.45    0.365   0.357   0.348   0.356   0.348   0.364   0.341   0.326   0.340   0.352   0.344   0.353   0.332   0.358   0.354   0.352   0.347   0.351   0.373   0.389   0.405   0.399   0.400   0.390   0.371   0.352   0.353   0.351   0.344   0.349   0.348   0.331   0.346   0.365   0.355
    56.80    0.369   0.366   0.359   0.387   0.362   0.377   0.342   0.354   0.351   0.351   0.348   0.351   0.340   0.360   0.364   0.354   0.342   0.335   0.370   0.393   0.398   0.398   0.398   0.383   0.386   0.368   0.349   0.341   0.351   0.348   0.330   0.343   0.364   0.356   0.370
    52.15    0.352   0.360   0.385   0.380   0.368   0.358   0.360   0.356   0.343   0.338   0.340   0.343   0.338   0.351   0.352   0.341   0.350   0.352   0.380   0.398   0.407   0.394   0.380   0.390   0.382   0.356   0.355   0.342   0.347   0.350   0.330   0.340   0.349   0.356   0.352
    47.50    0.339   0.362   0.379   0.375   0.357   0.364   0.372   0.355   0.364   0.354   0.356   0.352   0.354   0.356   0.371   0.372   0.366   0.364   0.365   0.380   0.383   0.388   0.371   0.368   0.369   0.353   0.359   0.338   0.357   0.351   0.356   0.349   0.348   0.346   0.366
    42.85    0.353   0.345   0.356   0.362   0.361   0.367   0.391   0.365   0.363   0.365   0.358   0.361   0.365   0.375   0.378   0.370   0.353   0.348   0.353   0.363   0.375   0.377   0.359   0.344   0.352   0.339   0.344   0.339   0.358   0.356   0.364   0.368   0.361   0.354   0.364
    38.20    0.344   0.342   0.348   0.358   0.339   0.355   0.365   0.376   0.366   0.351   0.347   0.361   0.375   0.361   0.386   0.379   0.356   0.360   0.361   0.357   0.344   0.363   0.363   0.340   0.339   0.355   0.353   0.348   0.353   0.360   0.364   0.360   0.372   0.374   0.370
    33.55    0.339   0.336   0.353   0.351   0.343   0.368   0.364   0.375   0.374   0.345   0.345   0.353   0.364   0.355   0.358   0.370   0.374   0.353   0.345   0.366   0.340   0.354   0.347   0.331   0.335   0.352   0.354   0.358   0.347   0.370   0.344   0.357   0.378   0.368   0.387
    28.90    0.338   0.344   0.350   0.345   0.344   0.342   0.354   0.356   0.362   0.348   0.364   0.353   0.360   0.365   0.363   0.374   0.357   0.367   0.373   0.350   0.365   0.361   0.350   0.349   0.345   0.344   0.364   0.359   0.364   0.395   0.373   0.367   0.379   0.385   0.383
    24.25    0.339   0.336   0.353   0.355   0.337   0.336   0.353   0.357   0.363   0.364   0.356   0.358   0.374   0.386   0.389   0.396   0.356   0.350   0.368   0.370   0.355   0.351   0.358   0.365   0.362   0.349   0.370   0.380   0.375   0.398   0.377   0.390   0.379   0.408   0.391
    19.60    0.343   0.352   0.350   0.358   0.359   0.363   0.370   0.372   0.375   0.365   0.367   0.368   0.371   0.383   0.389   0.397   0.360   0.347   0.385   0.386   0.386   0.353   0.375   0.364   0.351   0.337   0.371   0.397   0.380   0.381   0.382   0.385   0.409   0.392   0.388
    14.95    0.346   0.361   0.348   0.355   0.364   0.379   0.378   0.387   0.379   0.377   0.357   0.365   0.368   0.363   0.391   0.396   0.392   0.368   0.398   0.387   0.383   0.373   0.393   0.354   0.335   0.333   0.351   0.371   0.391   0.386   0.419   0.417   0.419   0.407   0.398
    10.30    0.358   0.351   0.354   0.360   0.358   0.376   0.378   0.385   0.381   0.357   0.358   0.340   0.352   0.368   0.377   0.382   0.379   0.377   0.383   0.389   0.387   0.390   0.365   0.357   0.358   0.353   0.370   0.395   0.411   0.404   0.430   0.404   0.407   0.403   0.408
     5.65    0.348   0.364   0.363   0.352   0.361   0.395   0.371   0.376   0.372   0.362   0.349   0.332   0.339   0.362   0.380   0.378   0.383   0.380   0.384   0.371   0.379   0.384   0.378   0.363   0.359   0.354   0.368   0.382   0.411   0.405   0.414   0.411   0.393   0.382   0.387
     1.00    0.364   0.359   0.354   0.359   0.377   0.371   0.361   0.361   0.353   0.347   0.369   0.352   0.354   0.348   0.368   0.377   0.365   0.373   0.386   0.374   0.387   0.368   0.384   0.382   0.379   0.350   0.379   0.390   0.396   0.399   0.384   0.396   0.394   0.384   0.381

   Height   Standard deviation at grid points for the w component:
   168.40    0.264   0.249   0.246   0.246   0.240   0.235   0.229   0.237   0.242   0.241   0.240   0.249   0.257   0.249   0.250   0.244   0.240   0.233   0.239   0.230   0.222   0.225   0.230   0.243   0.239   0.228   0.238   0.237   0.241   0.239   0.239   0.236   0.237   0.231   0.241
   163.75    0.254   0.260   0.258   0.245   0.242   0.237   0.229   0.246   0.242   0.249   0.248   0.247   0.247   0.253   0.244   0.252   0.236   0.234   0.243   0.241   0.240   0.234   0.239   0.233   0.242   0.237   0.238   0.241   0.243   0.236   0.244   0.234   0.233   0.248   0.245
   159.10    0.247   0.247   0.250   0.252   0.235   0.236   0.240   0.245   0.246   0.254   0.247   0.239   0.246   0.248   0.248   0.249   0.239   0.243   0.246   0.242   0.238   0.234   0.240   0.242   0.245   0.249   0.248   0.238   0.239   0.244   0.240   0.245   0.235   0.232   0.239
   154.45    0.236   0.237   0.249   0.237   0.233   0.230   0.238   0.247   0.244   0.255   0.242   0.246   0.235   0.248   0.253   0.251   0.253   0.249   0.253   0.247   0.247   0.241   0.251   0.251   0.243   0.239   0.238   0.239   0.249   0.241   0.244   0.245   0.241   0.242   0.237
   149.80    0.226   0.233   0.237   0.237   0.232   0.234   0.240   0.245   0.257   0.246   0.237   0.238   0.243   0.241   0.244   0.241   0.249   0.252   0.247   0.241   0.252   0.257   0.254   0.243   0.240   0.248   0.238   0.251   0.244   0.248   0.242   0.248   0.241   0.242   0.239
   145.15    0.226   0.235   0.242   0.230   0.236   0.236   0.239   0.237   0.252   0.244   0.237   0.242   0.254   0.239   0.243   0.247   0.249   0.253   0.240   0.253   0.254   0.253   0.248   0.247   0.248   0.235   0.239   0.238   0.240   0.246   0.254   0.259   0.246   0.246   0.247
   140.50    0.228   0.230   0.238   0.244   0.241   0.233   0.235   0.241   0.244   0.240   0.238   0.241   0.243   0.236   0.233   0.234   0.253   0.252   0.256   0.253   0.257   0.255   0.245   0.242   0.249   0.237   0.230   0.240   0.239   0.245   0.252   0.252   0.249   0.247   0.247
   135.85    0.229   0.227   0.232   0.236   0.241   0.234   0.234   0.231   0.240   0.232   0.233   0.241   0.236   0.225   0.237   0.238   0.252   0.241   0.254   0.256   0.256   0.248   0.240   0.248   0.241   0.233   0.243   0.244   0.249   0.250   0.243   0.246   0.247   0.241   0.243
   131.20    0.231   0.226   0.238   0.227   0.235   0.239   0.232   0.232   0.236   0.245   0.239   0.238   0.241   0.241   0.235   0.244   0.252   0.241   0.249   0.251   0.247   0.238   0.238   0.245   0.241   0.244   0.243   0.249   0.261   0.258   0.255   0.249   0.251   0.246   0.248
   126.55    0.234   0.235   0.231   0.231   0.232   0.233   0.231   0.232   0.231   0.241   0.239   0.235   0.237   0.251   0.241   0.239   0.246   0.245   0.245   0.248   0.255   0.250   0.245   0.242   0.250   0.247   0.253   0.255   0.252   0.253   0.259   0.254   0.250   0.254   0.240
   121.90    0.238   0.233   0.228   0.226   0.231   0.227   0.229   0.230   0.233   0.246   0.233   0.233   0.239   0.242   0.243   0.245   0.238   0.239   0.239   0.241   0.243   0.247   0.235   0.246   0.255   0.248   0.245   0.254   0.254   0.250   0.246   0.257   0.260   0.255   0.249
   117.25    0.240   0.234   0.230   0.227   0.235   0.234   0.235   0.234   0.230   0.235   0.236   0.243   0.241   0.246   0.242   0.244   0.239   0.244   0.242   0.251   0.248   0.234   0.244   0.251   0.256   0.257   0.248   0.248   0.257   0.256   0.260   0.257   0.261   0.260   0.252
   112.60    0.246   0.240   0.230   0.230   0.236   0.237   0.238   0.239   0.244   0.246   0.243   0.243   0.245   0.241   0.241   0.234   0.234   0.240   0.255   0.250   0.252   0.247   0.242   0.248   0.256   0.251   0.242   0.249   0.247   0.259   0.257   0.252   0.250   0.252   0.260
   107.95    0.236   0.234   0.236   0.236   0.238   0.238   0.242   0.239   0.246   0.249   0.245   0.230   0.235   0.237   0.238   0.241   0.238   0.243   0.246   0.239   0.246   0.246   0.247   0.255   0.266   0.242   0.242   0.244   0.259   0.257   0.253   0.254   0.251   0.251   0.257
   103.30    0.234   0.236   0.249   0.245   0.241   0.235   0.247   0.242   0.242   0.239   0.237   0.229   0.229   0.238   0.239   0.241   0.234   0.244   0.244   0.236   0.246   0.246   0.253   0.257   0.261   0.250   0.249   0.243   0.246   0.248   0.255   0.249   0.244   0.250   0.256
    98.65    0.240   0.242   0.243   0.247   0.248   0.236   0.247   0.241   0.240   0.234   0.240   0.236   0.241   0.244   0.245   0.239   0.237   0.235   0.230   0.237   0.246   0.244   0.253   0.261   0.260   0.268   0.264   0.251   0.247   0.246   0.251   0.245   0.245   0.248   0.247
    94.00    0.244   0.248   0.246   0.244   0.233   0.234   0.245   0.249   0.239   0.244   0.246   0.241   0.237   0.235   0.239   0.234   0.237   0.239   0.239   0.237   0.245   0.254   0.259   0.265   0.263   0.263   0.271   0.260   0.254   0.253   0.244   0.235   0.237   0.240   0.243
    89.35    0.246   0.240   0.245   0.249   0.240   0.231   0.245   0.241   0.243   0.252   0.248   0.238   0.244   0.230   0.233   0.234   0.251   0.248   0.252   0.254   0.260   0.257   0.258   0.261   0.265   0.262   0.252   0.255   0.259   0.259   0.250   0.240   0.230   0.243   0.249
    84.70    0.244   0.237   0.239   0.246   0.246   0.244   0.238   0.244   0.242   0.244   0.240   0.240   0.237   0.239   0.236   0.239   0.245   0.245   0.239   0.258   0.266   0.263   0.246   0.251   0.264   0.247   0.238   0.245   0.248   0.255   0.238   0.234   0.227   0.242   0.248
    80.05    0.236   0.236   0.237   0.244   0.247   0.245   0.236   0.238   0.240   0.236   0.233   0.237   0.233   0.228   0.236   0.243   0.242   0.240   0.251   0.252   0.253   0.256   0.254   0.251   0.252   0.243   0.238   0.237   0.236   0.248   0.236   0.237   0.234   0.244   0.247
    75.40    0.239   0.240   0.237   0.249   0.248   0.240   0.235   0.230   0.232   0.238   0.224   0.233   0.235   0.249   0.259   0.254   0.243   0.246   0.240   0.248   0.252   0.255   0.254   0.241   0.240   0.244   0.238   0.234   0.236   0.243   0.238   0.244   0.241   0.249   0.252
    70.75    0.235   0.244   0.250   0.249   0.241   0.237   0.233   0.229   0.232   0.235   0.234   0.234   0.237   0.250   0.252   0.251   0.248   0.245   0.249   0.247   0.250   0.248   0.246   0.248   0.237   0.238   0.233   0.235   0.243   0.247   0.244   0.252   0.242   0.244   0.245
    66.10    0.234   0.239   0.248   0.250   0.244   0.230   0.229   0.233   0.234   0.234   0.232   0.235   0.238   0.242   0.238   0.238   0.241   0.242   0.240   0.245   0.245   0.247   0.245   0.247   0.245   0.234   0.229   0.235   0.231   0.236   0.245   0.244   0.255   0.247   0.247
    61.45    0.234   0.238   0.238   0.249   0.244   0.236   0.236   0.241   0.240   0.247   0.245   0.234   0.239   0.244   0.229   0.233   0.236   0.243   0.243   0.238   0.247   0.242   0.240   0.243   0.244   0.230   0.235   0.234   0.233   0.240   0.234   0.252   0.255   0.245   0.247
    56.80    0.242   0.232   0.235   0.243   0.239   0.236   0.244   0.248   0.241   0.232   0.246   0.239   0.239   0.238   0.233   0.240   0.247   0.242   0.240   0.243   0.248   0.243   0.231   0.238   0.238   0.233   0.236   0.244   0.245   0.247   0.238   0.237   0.249   0.241   0.243
    52.15    0.249   0.240   0.232   0.237   0.236   0.238   0.244   0.246   0.238   0.246   0.237   0.237   0.232   0.234   0.239   0.244   0.243   0.235   0.237   0.242   0.242   0.238   0.240   0.232   0.236   0.238   0.236   0.238   0.245   0.239   0.237   0.239   0.233   0.243   0.243
    47.50    0.245   0.243   0.231   0.235   0.238   0.232   0.241   0.242   0.236   0.240   0.236   0.228   0.236   0.235   0.241   0.245   0.238   0.245   0.238   0.230   0.238   0.234   0.231   0.231   0.234   0.234   0.225   0.230   0.240   0.243   0.245   0.238   0.237   0.253   0.255
    42.85    0.245   0.245   0.243   0.245   0.243   0.235   0.241   0.238   0.242   0.244   0.235   0.233   0.232   0.244   0.243   0.241   0.235   0.236   0.238   0.233   0.236   0.231   0.236   0.233   0.229   0.229   0.228   0.231   0.235   0.239   0.244   0.239   0.242   0.247   0.248
    38.20    0.247   0.241   0.241   0.236   0.232   0.237   0.242   0.247   0.243   0.245   0.238   0.232   0.233   0.244   0.247   0.249   0.234   0.224   0.239   0.232   0.248   0.246   0.243   0.231   0.228   0.226   0.237   0.232   0.238   0.241   0.242   0.247   0.245   0.251   0.257
    33.55    0.238   0.237   0.240   0.236   0.238   0.234   0.235   0.239   0.249   0.246   0.237   0.248   0.244   0.247   0.244   0.238   0.231   0.228   0.238   0.242   0.245   0.240   0.243   0.238   0.237   0.230   0.226   0.230   0.233   0.235   0.246   0.253   0.247   0.243   0.270
    28.90    0.248   0.248   0.242   0.238   0.234   0.239   0.230   0.239   0.247   0.248   0.242   0.240   0.239   0.250   0.241   0.226   0.227   0.227   0.238   0.242   0.241   0.244   0.241   0.232   0.236   0.238   0.229   0.234   0.227   0.232   0.243   0.240   0.253   0.264   0.261
    24.25    0.250   0.256   0.240   0.242   0.240   0.239   0.245   0.244   0.247   0.255   0.244   0.249   0.240   0.235   0.243   0.237   0.226   0.229   0.231   0.238   0.239   0.234   0.241   0.232   0.228   0.239   0.232   0.243   0.244   0.238   0.245   0.235   0.248   0.259   0.256
    19.60    0.249   0.248   0.241   0.236   0.235   0.242   0.258   0.238   0.247   0.255   0.252   0.248   0.246   0.251   0.245   0.241   0.233   0.229   0.233   0.226   0.243   0.235   0.233   0.225   0.235   0.235   0.223   0.233   0.244   0.240   0.247   0.247   0.249   0.256   0.263
    14.95    0.242   0.243   0.235   0.241   0.241   0.238   0.244   0.242   0.245   0.241   0.250   0.246   0.247   0.254   0.252   0.249   0.238   0.236   0.241   0.249   0.248   0.244   0.234   0.236   0.231   0.224   0.226   0.231   0.243   0.249   0.246   0.248   0.249   0.258   0.256
    10.30    0.236   0.243   0.239   0.241   0.241   0.246   0.246   0.248   0.246   0.254   0.248   0.248   0.241   0.244   0.250   0.253   0.253   0.242   0.239   0.234   0.238   0.235   0.235   0.239   0.230   0.223   0.229   0.229   0.236   0.235   0.244   0.246   0.242   0.259   0.260
     5.65    0.246   0.244   0.246   0.251   0.240   0.243   0.247   0.244   0.245   0.243   0.243   0.243   0.252   0.254   0.260   0.248   0.241   0.242   0.242   0.252   0.237   0.229   0.229   0.235   0.226   0.224   0.226   0.226   0.230   0.226   0.229   0.243   0.240   0.242   0.247
     1.00    0.249   0.256   0.257   0.254   0.244   0.246   0.248   0.248   0.232   0.238   0.241   0.246   0.252   0.244   0.254   0.253   0.238   0.245   0.249   0.258   0.248   0.226   0.233   0.234   0.234   0.228   0.221   0.215   0.226   0.229   0.229   0.238   0.241   0.248   0.248

   Mean standard deviation across all grid points:
      u component:    0.472 m/s
      v component:    0.359 m/s
      w component:    0.242 m/s


U-component (X) statistics from the interpolated hub point:

   Mean =   9.9913 m/s
   TI   =   4.7819 %


Processing complete.  6255.3 CPU seconds used.
