
This summary file was generated by TurbSim (from OpenFAST-v3.5.3) on 20-Apr-2025 at 06:06:33.


Runtime Options:

1682697194  Random seed #1
    RANLUX  Type of random number generator
         F  Output binary HH turbulence parameters?
         F  Output formatted turbulence parameters?
         F  Output AeroDyn HH files?
         T  Output AeroDyn FF files?
         F  Output BLADED FF files?
         F  Output tower data?
         F  Output HAWC FF files?
         F  Output formatted FF files?
         T  Output coherent turbulence time step file?
 0 -  NONE  IEC turbulence models scaled to exact specified standard deviation


Turbine/Model Specifications:

        37  Vertical grid-point matrix dimension
        35  Horizontal grid-point matrix dimension
     0.250  Time step [seconds]
   900.000  Analysis time [seconds]
   900.000  Usable output time [seconds]
    89.350  Hub height [m]
   167.400  Grid height [m]
   158.100  Grid width [m]
     0.000  Vertical flow angle [degrees]
     0.000  Horizontal flow angle [degrees]


Meteorological Boundary Conditions:

    TIMESR  User-input time series spectral model
       N/A  IEC standard
       N/A  IEC turbulence characteristic
       N/A  IEC turbulence type
       N/A  IEC Extreme Turbulence Model (ETM) "c" parameter [m/s]
       PL   Wind profile type
    90.000  Reference height [m]
    10.000  Reference wind speed [m/s]
       N/A  Jet height [m]
     0.120  Power law exponent
     0.030  Surface roughness length [m]


Non-IEC Meteorological Boundary Conditions:

    45.000  Site latitude [degrees]
     0.050  Gradient Richardson number
     0.480  Friction or shear velocity [m/s]
       N/A  Mixing layer depth [m]
       N/A  Mean hub u'w' Reynolds stress
       N/A  Mean hub u'v' Reynolds stress
       N/A  Mean hub v'w' Reynolds stress


Spatial Coherence Models:

       IEC  u-component coherence model
       IEC  v-component coherence model
       IEC  w-component coherence model
(   12.000, 0.353E-03)  u-component coherence parameters
(   12.000, 0.353E-03)  v-component coherence parameters
(   12.000, 0.353E-03)  w-component coherence parameters
       N/A  Coherence exponent


Coherent Turbulence Scaling Parameters:

.\EventData
            Name of the path containing the coherent turbulence data files
       les  Type of coherent turbulence data files
     0.500  Disturbance scale (ratio of wave height to rotor diameter)
     0.500  Fractional location of tower centerline from right
     0.000  Fractional location of hub height from the bottom of the dataset
    30.000  Minimum start time for coherent structures [seconds]


Profiles from User-Defined Time-Series Input:

  Height   Wind Speed   Horizontal Angle   Vertical Angle
   (m)        (m/s)          (deg)              (deg)    
  ------   ----------   ----------------   --------------
   94.00      10.00          -0.63               -0.00


You have requested that the following file(s) be generated:

   /kfs3/scratch/agupta/Projects/RL_Incubator/FinalRuns_Veer/Seed4/./FFSim_Seed4/Cond00_v10.0_PL0.12_TI5.0/Case1_wdirp02/Seed_5/TurbSim/HighT13.bts (AeroDyn/TurbSim full-field wind file)


Turbulence Simulation Scaling Parameter Summary:

   Turbulence model used                            =  User-input time series
   Gradient Richardson number                       =    0.050
   Monin-Obukhov (M-O) z/L parameter                =    0.067
   Monin-Obukhov (M-O) length scale                 = 1340.250 m
   Mean wind speed at hub height                    =    9.991 m/s

   Wind profile type                                =  Power law
   Power law exponent                               =    0.120
   Mean shear across rotor disk                     =    0.019 (m/s)/m
   Assumed rotor diameter                           =  158.100 m
   Surface roughness length                         =    0.030 m

   Nyquist frequency of turbulent wind field        =    2.000 Hz

   Number of time steps in the FFT                  =     3600
   Number of time steps output                      =     3600
   Number of points simulated                       =     1296


Mean Flow Angles:

   Vertical   =   0.0 degrees
   Horizontal =   0.0 degrees

Mean Wind Speed Profile:

   Height    Wind Speed   Horizontal Angle  Vertical Angle  U-comp (X)   V-comp (Y)   W-comp (Z)
     (m)        (m/s)         (degrees)       (degrees)       (m/s)        (m/s)        (m/s)   
   ------    ----------   ----------------  --------------  ----------   ----------   ----------
    168.4       10.78            0.00            0.00         10.78         0.00         0.00
    163.7       10.74            0.00            0.00         10.74         0.00         0.00
    159.1       10.71            0.00            0.00         10.71         0.00         0.00
    154.4       10.67            0.00            0.00         10.67         0.00         0.00
    149.8       10.63            0.00            0.00         10.63         0.00         0.00
    145.1       10.59            0.00            0.00         10.59         0.00         0.00
    140.5       10.55            0.00            0.00         10.55         0.00         0.00
    135.8       10.51            0.00            0.00         10.51         0.00         0.00
    131.2       10.46            0.00            0.00         10.46         0.00         0.00
    126.5       10.42            0.00            0.00         10.42         0.00         0.00
    121.9       10.37            0.00            0.00         10.37         0.00         0.00
    117.2       10.32            0.00            0.00         10.32         0.00         0.00
    112.6       10.27            0.00            0.00         10.27         0.00         0.00
    107.9       10.22            0.00            0.00         10.22         0.00         0.00
    103.3       10.17            0.00            0.00         10.17         0.00         0.00
     98.6       10.11            0.00            0.00         10.11         0.00         0.00
     94.0       10.05            0.00            0.00         10.05         0.00         0.00
     89.3        9.99            0.00            0.00          9.99         0.00         0.00
     84.7        9.93            0.00            0.00          9.93         0.00         0.00
     80.0        9.86            0.00            0.00          9.86         0.00         0.00
     75.4        9.79            0.00            0.00          9.79         0.00         0.00
     70.7        9.72            0.00            0.00          9.72         0.00         0.00
     66.1        9.64            0.00            0.00          9.64         0.00         0.00
     61.4        9.55            0.00            0.00          9.55         0.00         0.00
     56.8        9.46            0.00            0.00          9.46         0.00         0.00
     52.1        9.37            0.00            0.00          9.37         0.00         0.00
     47.5        9.26            0.00            0.00          9.26         0.00         0.00
     42.8        9.15            0.00            0.00          9.15         0.00         0.00
     38.2        9.02            0.00            0.00          9.02         0.00         0.00
     33.5        8.88            0.00            0.00          8.88         0.00         0.00
     28.9        8.73            0.00            0.00          8.73         0.00         0.00
     24.2        8.54            0.00            0.00          8.54         0.00         0.00
     19.6        8.33            0.00            0.00          8.33         0.00         0.00
     14.9        8.06            0.00            0.00          8.06         0.00         0.00
     10.3        7.71            0.00            0.00          7.71         0.00         0.00
      5.6        7.17            0.00            0.00          7.17         0.00         0.00
      1.0        5.83            0.00            0.00          5.83         0.00         0.00


Harvested Random Seeds after Generation of the Random Numbers:

     65026800 K 1
            0 K 2


Hub-Height Simulated Turbulence Statistical Summary:

   Type of Wind        Min (m/s)   Mean (m/s)    Max (m/s)  Sigma (m/s)       TI (%)
   ----------------    ---------   ----------    ---------  -----------       ------
   Longitudinal (u)         8.43         9.99        11.26        0.455        4.552
   Lateral (v)             -1.25        -0.00         1.08        0.370        3.699
   Vertical (w)            -0.74         0.00         0.70        0.228        2.283
   U component              8.43         9.99        11.26        0.455        4.552
   V component             -1.25        -0.00         1.08        0.370        3.699
   W component             -0.74         0.00         0.70        0.228        2.283
   Horizontal (U&V)         8.43        10.00        11.26        0.454        4.544
   Total                    8.44        10.00        11.27        0.454        4.541

                       Min Reynolds     Mean Reynolds    Max Reynolds    Correlation
   Product             Stress (m/s)^2   Stress (m/s)^2   Stress (m/s)^2  Coefficient
   ----------------    --------------   --------------   --------------  -----------
   u'w'                     -0.792             0.005             1.052         0.050
   u'v'                     -0.811            -0.003             0.703        -0.015
   v'w'                     -0.448            -0.001             0.397        -0.010


   Friction Velocity (Ustar)  =      0.072 m/s
   Maximum Instantaneous TKE  =      1.342 (m/s)^2
   Maximum Instantaneous CTKE =      0.546 (m/s)^2


Grid Point Variance Summary:

   Y-coord  -79.05  -74.40  -69.75  -65.10  -60.45  -55.80  -51.15  -46.50  -41.85  -37.20  -32.55  -27.90  -23.25  -18.60  -13.95   -9.30   -4.65    0.00    4.65    9.30   13.95   18.60   23.25   27.90   32.55   37.20   41.85   46.50   51.15   55.80   60.45   65.10   69.75   74.40   79.05

   Height   Standard deviation at grid points for the u component:
   168.40    0.381   0.396   0.391   0.386   0.404   0.410   0.403   0.402   0.389   0.400   0.413   0.398   0.381   0.351   0.369   0.352   0.333   0.376   0.372   0.377   0.368   0.348   0.346   0.346   0.346   0.364   0.413   0.406   0.402   0.400   0.396   0.373   0.348   0.368   0.379
   163.75    0.371   0.391   0.387   0.396   0.392   0.379   0.388   0.375   0.371   0.381   0.381   0.373   0.375   0.381   0.378   0.343   0.361   0.370   0.342   0.355   0.350   0.351   0.350   0.380   0.386   0.380   0.379   0.398   0.405   0.402   0.373   0.366   0.358   0.365   0.341
   159.10    0.367   0.371   0.380   0.392   0.399   0.396   0.388   0.384   0.377   0.376   0.363   0.358   0.389   0.392   0.389   0.357   0.372   0.356   0.365   0.355   0.338   0.349   0.380   0.371   0.398   0.367   0.377   0.394   0.391   0.396   0.385   0.352   0.357   0.354   0.343
   154.45    0.374   0.374   0.398   0.385   0.356   0.364   0.371   0.382   0.373   0.387   0.366   0.352   0.361   0.368   0.394   0.378   0.396   0.366   0.367   0.402   0.382   0.354   0.362   0.387   0.386   0.358   0.355   0.368   0.378   0.398   0.384   0.359   0.361   0.368   0.348
   149.80    0.393   0.377   0.379   0.373   0.361   0.350   0.368   0.360   0.369   0.382   0.376   0.367   0.357   0.370   0.393   0.398   0.392   0.377   0.370   0.391   0.391   0.354   0.383   0.391   0.365   0.351   0.343   0.383   0.379   0.393   0.393   0.361   0.379   0.380   0.371
   145.15    0.406   0.399   0.368   0.371   0.355   0.359   0.358   0.362   0.370   0.387   0.372   0.372   0.377   0.361   0.386   0.408   0.409   0.374   0.368   0.395   0.401   0.416   0.378   0.373   0.374   0.358   0.372   0.360   0.372   0.387   0.393   0.377   0.374   0.367   0.362
   140.50    0.398   0.394   0.379   0.347   0.344   0.352   0.341   0.329   0.369   0.381   0.382   0.348   0.352   0.352   0.358   0.377   0.401   0.416   0.392   0.373   0.374   0.389   0.400   0.352   0.381   0.369   0.354   0.390   0.379   0.384   0.391   0.378   0.376   0.366   0.367
   135.85    0.361   0.357   0.371   0.369   0.350   0.343   0.357   0.352   0.351   0.364   0.354   0.352   0.344   0.346   0.378   0.393   0.401   0.416   0.371   0.377   0.368   0.373   0.388   0.375   0.377   0.390   0.395   0.395   0.393   0.423   0.368   0.375   0.360   0.359   0.360
   131.20    0.365   0.353   0.359   0.381   0.336   0.326   0.357   0.360   0.351   0.335   0.365   0.353   0.369   0.365   0.372   0.391   0.424   0.421   0.389   0.378   0.382   0.392   0.380   0.380   0.410   0.394   0.384   0.379   0.413   0.439   0.386   0.372   0.376   0.366   0.359
   126.55    0.376   0.358   0.345   0.342   0.361   0.351   0.341   0.363   0.350   0.368   0.368   0.378   0.365   0.398   0.368   0.414   0.409   0.424   0.404   0.404   0.405   0.408   0.384   0.396   0.411   0.427   0.375   0.401   0.408   0.413   0.409   0.379   0.374   0.361   0.352
   121.90    0.360   0.359   0.350   0.319   0.353   0.329   0.360   0.354   0.360   0.360   0.372   0.377   0.371   0.384   0.424   0.447   0.453   0.419   0.394   0.411   0.424   0.405   0.412   0.425   0.424   0.433   0.410   0.408   0.411   0.423   0.417   0.397   0.381   0.382   0.382
   117.25    0.378   0.377   0.360   0.343   0.344   0.351   0.365   0.355   0.371   0.384   0.351   0.362   0.380   0.397   0.442   0.450   0.447   0.438   0.412   0.422   0.433   0.406   0.431   0.416   0.419   0.413   0.424   0.409   0.431   0.408   0.418   0.410   0.426   0.418   0.389
   112.60    0.391   0.383   0.391   0.350   0.357   0.352   0.380   0.373   0.371   0.399   0.385   0.407   0.397   0.377   0.398   0.430   0.446   0.454   0.421   0.395   0.400   0.400   0.427   0.422   0.455   0.449   0.442   0.442   0.449   0.424   0.390   0.418   0.427   0.419   0.397
   107.95    0.374   0.382   0.381   0.358   0.351   0.365   0.401   0.395   0.407   0.411   0.392   0.395   0.376   0.396   0.407   0.403   0.438   0.454   0.427   0.420   0.393   0.412   0.437   0.455   0.462   0.471   0.448   0.459   0.454   0.417   0.401   0.400   0.402   0.389   0.384
   103.30    0.348   0.364   0.385   0.381   0.378   0.413   0.396   0.390   0.391   0.392   0.374   0.395   0.387   0.424   0.418   0.420   0.437   0.441   0.411   0.397   0.431   0.440   0.479   0.474   0.464   0.476   0.478   0.465   0.444   0.434   0.424   0.406   0.392   0.392   0.359
    98.65    0.381   0.375   0.358   0.370   0.376   0.416   0.398   0.370   0.355   0.394   0.381   0.403   0.409   0.452   0.425   0.423   0.458   0.417   0.394   0.404   0.425   0.478   0.454   0.463   0.499   0.498   0.468   0.465   0.435   0.438   0.396   0.376   0.379   0.375   0.353
    94.00    0.373   0.365   0.380   0.410   0.406   0.413   0.420   0.391   0.358   0.386   0.413   0.427   0.425   0.462   0.460   0.480   0.460   0.442   0.441   0.423   0.441   0.459   0.486   0.476   0.512   0.487   0.490   0.463   0.437   0.415   0.405   0.374   0.370   0.381   0.353
    89.35    0.360   0.380   0.400   0.417   0.417   0.401   0.441   0.395   0.399   0.379   0.410   0.434   0.421   0.444   0.474   0.487   0.451   0.455   0.455   0.440   0.468   0.397   0.454   0.486   0.496   0.470   0.465   0.460   0.414   0.402   0.422   0.392   0.383   0.373   0.374
    84.70    0.368   0.388   0.398   0.432   0.442   0.455   0.440   0.425   0.427   0.427   0.427   0.459   0.444   0.459   0.451   0.453   0.449   0.447   0.466   0.477   0.435   0.437   0.456   0.496   0.508   0.497   0.486   0.456   0.423   0.398   0.424   0.401   0.389   0.396   0.406
    80.05    0.406   0.412   0.404   0.449   0.470   0.459   0.456   0.446   0.421   0.423   0.452   0.486   0.452   0.471   0.487   0.474   0.463   0.441   0.427   0.439   0.437   0.445   0.450   0.455   0.474   0.494   0.490   0.444   0.457   0.448   0.445   0.450   0.451   0.428   0.408
    75.40    0.410   0.400   0.444   0.469   0.490   0.497   0.452   0.426   0.434   0.447   0.491   0.506   0.483   0.496   0.501   0.475   0.469   0.449   0.420   0.438   0.440   0.440   0.440   0.449   0.481   0.496   0.471   0.459   0.427   0.440   0.428   0.439   0.451   0.450   0.398
    70.75    0.415   0.416   0.402   0.470   0.486   0.505   0.475   0.436   0.474   0.489   0.508   0.521   0.515   0.523   0.514   0.521   0.471   0.472   0.436   0.435   0.429   0.450   0.474   0.482   0.472   0.484   0.476   0.453   0.457   0.429   0.402   0.420   0.403   0.415   0.397
    66.10    0.382   0.423   0.411   0.435   0.458   0.460   0.451   0.448   0.450   0.455   0.488   0.516   0.550   0.503   0.505   0.507   0.493   0.479   0.467   0.428   0.453   0.465   0.475   0.462   0.491   0.506   0.484   0.460   0.441   0.436   0.391   0.401   0.399   0.421   0.379
    61.45    0.400   0.407   0.413   0.428   0.415   0.426   0.446   0.431   0.453   0.465   0.484   0.493   0.518   0.513   0.508   0.488   0.507   0.501   0.484   0.441   0.456   0.476   0.481   0.449   0.453   0.475   0.468   0.471   0.458   0.418   0.422   0.424   0.387   0.404   0.391
    56.80    0.403   0.385   0.400   0.408   0.406   0.439   0.428   0.447   0.474   0.454   0.486   0.486   0.485   0.490   0.481   0.471   0.501   0.506   0.467   0.464   0.463   0.482   0.480   0.455   0.461   0.464   0.469   0.470   0.434   0.430   0.408   0.402   0.419   0.427   0.399
    52.15    0.445   0.427   0.425   0.441   0.414   0.423   0.459   0.441   0.453   0.469   0.451   0.453   0.453   0.469   0.464   0.496   0.511   0.475   0.445   0.456   0.454   0.469   0.465   0.438   0.449   0.442   0.442   0.439   0.428   0.439   0.435   0.450   0.439   0.426   0.408
    47.50    0.494   0.481   0.469   0.494   0.456   0.454   0.437   0.437   0.446   0.417   0.446   0.466   0.486   0.438   0.433   0.472   0.488   0.463   0.453   0.451   0.445   0.429   0.444   0.443   0.448   0.459   0.439   0.423   0.390   0.427   0.427   0.444   0.468   0.444   0.455
    42.85    0.487   0.491   0.507   0.488   0.451   0.451   0.453   0.412   0.398   0.415   0.437   0.463   0.456   0.459   0.451   0.456   0.498   0.470   0.445   0.437   0.450   0.440   0.403   0.444   0.452   0.464   0.444   0.439   0.441   0.438   0.435   0.423   0.467   0.444   0.434
    38.20    0.500   0.498   0.511   0.476   0.470   0.452   0.431   0.442   0.414   0.408   0.395   0.428   0.436   0.473   0.486   0.467   0.510   0.484   0.481   0.437   0.451   0.426   0.408   0.416   0.413   0.439   0.432   0.448   0.436   0.449   0.443   0.466   0.500   0.486   0.445
    33.55    0.500   0.477   0.472   0.474   0.471   0.418   0.424   0.395   0.409   0.382   0.413   0.427   0.472   0.492   0.519   0.499   0.489   0.483   0.482   0.511   0.498   0.487   0.444   0.415   0.414   0.423   0.441   0.438   0.458   0.481   0.445   0.452   0.473   0.477   0.473
    28.90    0.479   0.482   0.441   0.451   0.436   0.459   0.443   0.418   0.414   0.403   0.403   0.436   0.467   0.485   0.490   0.474   0.456   0.458   0.462   0.481   0.483   0.490   0.463   0.404   0.406   0.423   0.435   0.451   0.426   0.458   0.477   0.486   0.474   0.468   0.450
    24.25    0.477   0.465   0.459   0.432   0.460   0.456   0.395   0.404   0.407   0.397   0.419   0.436   0.465   0.480   0.483   0.453   0.446   0.457   0.466   0.463   0.449   0.461   0.465   0.433   0.398   0.401   0.422   0.417   0.449   0.438   0.461   0.489   0.458   0.445   0.447
    19.60    0.447   0.460   0.468   0.458   0.449   0.424   0.421   0.415   0.418   0.432   0.434   0.419   0.442   0.458   0.442   0.450   0.455   0.456   0.482   0.483   0.460   0.465   0.436   0.440   0.438   0.443   0.456   0.420   0.426   0.449   0.483   0.464   0.470   0.464   0.454
    14.95    0.460   0.433   0.456   0.454   0.440   0.427   0.437   0.431   0.428   0.449   0.443   0.439   0.437   0.446   0.433   0.442   0.461   0.460   0.451   0.495   0.509   0.464   0.467   0.480   0.466   0.446   0.442   0.421   0.431   0.445   0.455   0.440   0.443   0.448   0.450
    10.30    0.484   0.497   0.496   0.451   0.431   0.448   0.439   0.414   0.418   0.441   0.442   0.414   0.430   0.452   0.441   0.434   0.470   0.476   0.458   0.502   0.501   0.510   0.531   0.507   0.495   0.457   0.429   0.416   0.438   0.470   0.473   0.472   0.453   0.426   0.443
     5.65    0.503   0.480   0.509   0.497   0.492   0.486   0.483   0.449   0.433   0.450   0.453   0.417   0.410   0.426   0.461   0.486   0.476   0.486   0.500   0.498   0.497   0.508   0.519   0.497   0.480   0.458   0.458   0.439   0.442   0.454   0.430   0.453   0.459   0.452   0.424
     1.00    0.471   0.486   0.500   0.523   0.497   0.487   0.466   0.471   0.455   0.456   0.446   0.427   0.435   0.430   0.452   0.470   0.506   0.508   0.491   0.531   0.507   0.532   0.552   0.530   0.513   0.496   0.488   0.437   0.440   0.439   0.433   0.415   0.429   0.447   0.449

   Height   Standard deviation at grid points for the v component:
   168.40    0.410   0.402   0.400   0.389   0.387   0.399   0.393   0.373   0.364   0.378   0.385   0.392   0.400   0.402   0.408   0.382   0.370   0.358   0.366   0.373   0.358   0.375   0.360   0.369   0.385   0.371   0.377   0.375   0.371   0.358   0.368   0.380   0.366   0.381   0.409
   163.75    0.420   0.389   0.391   0.395   0.393   0.386   0.382   0.381   0.364   0.373   0.393   0.388   0.389   0.396   0.392   0.391   0.388   0.373   0.376   0.390   0.383   0.373   0.377   0.387   0.370   0.379   0.373   0.368   0.372   0.363   0.368   0.360   0.373   0.382   0.403
   159.10    0.388   0.382   0.387   0.372   0.386   0.366   0.378   0.370   0.365   0.361   0.385   0.378   0.382   0.376   0.380   0.393   0.396   0.372   0.378   0.384   0.381   0.370   0.374   0.368   0.371   0.381   0.404   0.386   0.373   0.365   0.373   0.364   0.364   0.381   0.396
   154.45    0.379   0.390   0.388   0.384   0.373   0.368   0.370   0.348   0.359   0.358   0.369   0.379   0.379   0.379   0.381   0.377   0.379   0.368   0.377   0.372   0.379   0.382   0.400   0.390   0.377   0.392   0.403   0.406   0.391   0.387   0.376   0.377   0.378   0.391   0.397
   149.80    0.374   0.366   0.364   0.381   0.361   0.344   0.356   0.355   0.367   0.367   0.363   0.385   0.384   0.382   0.374   0.374   0.384   0.364   0.369   0.371   0.369   0.382   0.381   0.389   0.383   0.382   0.418   0.413   0.391   0.392   0.384   0.367   0.376   0.382   0.397
   145.15    0.361   0.353   0.353   0.371   0.367   0.361   0.346   0.354   0.354   0.349   0.354   0.371   0.360   0.368   0.361   0.356   0.371   0.357   0.357   0.381   0.387   0.388   0.378   0.379   0.402   0.417   0.414   0.414   0.371   0.376   0.371   0.380   0.376   0.382   0.398
   140.50    0.353   0.355   0.356   0.367   0.368   0.368   0.351   0.347   0.352   0.347   0.368   0.348   0.361   0.345   0.352   0.361   0.364   0.369   0.379   0.383   0.374   0.393   0.416   0.390   0.385   0.407   0.416   0.393   0.393   0.390   0.379   0.385   0.394   0.379   0.402
   135.85    0.354   0.366   0.366   0.373   0.374   0.365   0.352   0.364   0.353   0.349   0.363   0.363   0.352   0.356   0.362   0.353   0.362   0.373   0.376   0.376   0.390   0.387   0.390   0.403   0.404   0.417   0.406   0.403   0.405   0.387   0.389   0.381   0.369   0.377   0.389
   131.20    0.336   0.357   0.358   0.370   0.375   0.373   0.368   0.351   0.352   0.348   0.365   0.359   0.371   0.360   0.363   0.343   0.348   0.351   0.365   0.369   0.382   0.379   0.416   0.380   0.397   0.400   0.410   0.397   0.394   0.371   0.372   0.369   0.372   0.372   0.387
   126.55    0.364   0.370   0.359   0.383   0.376   0.366   0.382   0.367   0.337   0.350   0.351   0.362   0.367   0.371   0.388   0.374   0.343   0.357   0.359   0.367   0.376   0.385   0.408   0.395   0.381   0.377   0.394   0.380   0.378   0.358   0.371   0.366   0.365   0.386   0.393
   121.90    0.348   0.358   0.367   0.395   0.383   0.375   0.369   0.360   0.347   0.339   0.371   0.348   0.362   0.392   0.397   0.371   0.371   0.369   0.359   0.368   0.372   0.362   0.383   0.385   0.374   0.369   0.376   0.376   0.374   0.366   0.350   0.350   0.349   0.368   0.380
   117.25    0.357   0.364   0.368   0.374   0.378   0.357   0.365   0.356   0.349   0.362   0.376   0.341   0.352   0.380   0.380   0.364   0.381   0.366   0.364   0.355   0.362   0.387   0.389   0.367   0.394   0.390   0.386   0.379   0.365   0.350   0.350   0.356   0.343   0.327   0.353
   112.60    0.370   0.374   0.360   0.347   0.360   0.368   0.355   0.362   0.349   0.361   0.359   0.352   0.372   0.371   0.372   0.359   0.369   0.361   0.366   0.365   0.385   0.382   0.402   0.396   0.386   0.408   0.392   0.378   0.365   0.350   0.365   0.368   0.333   0.326   0.332
   107.95    0.378   0.373   0.365   0.362   0.340   0.356   0.357   0.354   0.340   0.343   0.339   0.342   0.367   0.361   0.351   0.372   0.358   0.363   0.353   0.382   0.390   0.381   0.383   0.395   0.413   0.407   0.374   0.369   0.363   0.369   0.376   0.353   0.347   0.327   0.331
   103.30    0.376   0.376   0.363   0.344   0.355   0.344   0.355   0.351   0.348   0.336   0.345   0.353   0.367   0.361   0.331   0.346   0.363   0.356   0.366   0.387   0.400   0.413   0.405   0.399   0.400   0.392   0.385   0.377   0.349   0.366   0.365   0.357   0.337   0.328   0.344
    98.65    0.358   0.345   0.372   0.349   0.356   0.357   0.361   0.338   0.343   0.349   0.332   0.341   0.354   0.347   0.347   0.351   0.370   0.362   0.396   0.410   0.422   0.426   0.414   0.402   0.406   0.386   0.377   0.366   0.372   0.363   0.367   0.341   0.341   0.344   0.341
    94.00    0.348   0.366   0.360   0.364   0.359   0.356   0.364   0.371   0.362   0.345   0.342   0.347   0.356   0.356   0.344   0.358   0.377   0.378   0.383   0.416   0.399   0.393   0.401   0.401   0.407   0.394   0.372   0.378   0.375   0.358   0.372   0.350   0.330   0.343   0.355
    89.35    0.364   0.371   0.370   0.367   0.372   0.362   0.362   0.360   0.355   0.364   0.364   0.341   0.340   0.343   0.351   0.340   0.352   0.370   0.394   0.407   0.397   0.395   0.401   0.393   0.408   0.366   0.360   0.364   0.358   0.373   0.366   0.345   0.337   0.349   0.352
    84.70    0.374   0.369   0.388   0.394   0.372   0.385   0.389   0.368   0.383   0.372   0.355   0.357   0.345   0.354   0.361   0.376   0.360   0.383   0.401   0.396   0.388   0.384   0.388   0.377   0.384   0.354   0.353   0.355   0.354   0.346   0.356   0.356   0.337   0.350   0.353
    80.05    0.362   0.373   0.385   0.384   0.380   0.374   0.385   0.377   0.379   0.364   0.366   0.362   0.368   0.361   0.355   0.371   0.367   0.385   0.396   0.392   0.385   0.379   0.388   0.390   0.381   0.375   0.359   0.367   0.363   0.361   0.355   0.355   0.337   0.333   0.339
    75.40    0.374   0.376   0.385   0.405   0.383   0.393   0.395   0.385   0.374   0.370   0.370   0.372   0.362   0.351   0.359   0.381   0.403   0.409   0.381   0.401   0.401   0.390   0.394   0.379   0.378   0.369   0.392   0.382   0.393   0.365   0.351   0.329   0.330   0.328   0.349
    70.75    0.383   0.376   0.375   0.400   0.390   0.381   0.405   0.398   0.372   0.368   0.371   0.373   0.363   0.348   0.349   0.366   0.390   0.405   0.397   0.374   0.394   0.399   0.384   0.382   0.386   0.400   0.384   0.379   0.374   0.353   0.354   0.324   0.318   0.353   0.359
    66.10    0.347   0.348   0.371   0.384   0.393   0.390   0.403   0.382   0.378   0.375   0.372   0.357   0.366   0.362   0.368   0.359   0.401   0.380   0.381   0.381   0.401   0.403   0.399   0.394   0.399   0.383   0.391   0.391   0.395   0.374   0.385   0.360   0.362   0.365   0.371
    61.45    0.371   0.338   0.371   0.380   0.378   0.378   0.383   0.383   0.361   0.373   0.369   0.356   0.371   0.371   0.371   0.400   0.407   0.389   0.387   0.382   0.393   0.398   0.415   0.428   0.386   0.391   0.412   0.392   0.381   0.368   0.375   0.364   0.382   0.366   0.380
    56.80    0.352   0.357   0.361   0.370   0.385   0.375   0.372   0.382   0.394   0.382   0.375   0.388   0.363   0.388   0.397   0.405   0.396   0.400   0.391   0.391   0.382   0.387   0.398   0.411   0.386   0.370   0.377   0.378   0.373   0.382   0.375   0.364   0.370   0.361   0.369
    52.15    0.352   0.372   0.375   0.400   0.378   0.368   0.368   0.372   0.394   0.397   0.395   0.387   0.386   0.400   0.382   0.399   0.385   0.402   0.379   0.391   0.389   0.371   0.377   0.369   0.366   0.350   0.345   0.350   0.353   0.371   0.390   0.372   0.370   0.368   0.359
    47.50    0.379   0.363   0.369   0.375   0.373   0.381   0.380   0.364   0.375   0.399   0.402   0.404   0.396   0.388   0.374   0.365   0.377   0.389   0.397   0.381   0.388   0.379   0.394   0.379   0.364   0.337   0.333   0.345   0.345   0.356   0.377   0.402   0.392   0.394   0.374
    42.85    0.371   0.386   0.383   0.369   0.376   0.376   0.379   0.370   0.387   0.395   0.401   0.407   0.401   0.374   0.391   0.385   0.388   0.395   0.378   0.373   0.375   0.378   0.392   0.362   0.350   0.332   0.328   0.337   0.345   0.349   0.357   0.362   0.389   0.368   0.384
    38.20    0.386   0.388   0.382   0.388   0.370   0.355   0.355   0.369   0.401   0.413   0.401   0.410   0.388   0.394   0.393   0.416   0.407   0.394   0.385   0.372   0.376   0.372   0.366   0.348   0.337   0.324   0.340   0.346   0.344   0.342   0.355   0.356   0.355   0.364   0.365
    33.55    0.375   0.376   0.382   0.374   0.372   0.364   0.370   0.382   0.394   0.399   0.433   0.408   0.399   0.406   0.404   0.409   0.394   0.404   0.398   0.380   0.366   0.375   0.360   0.337   0.347   0.330   0.324   0.351   0.349   0.360   0.338   0.346   0.342   0.369   0.364
    28.90    0.358   0.371   0.362   0.368   0.374   0.355   0.367   0.392   0.404   0.426   0.430   0.425   0.405   0.412   0.415   0.404   0.394   0.395   0.391   0.368   0.339   0.357   0.341   0.326   0.345   0.333   0.325   0.346   0.364   0.358   0.349   0.359   0.356   0.368   0.356
    24.25    0.350   0.362   0.370   0.377   0.376   0.362   0.359   0.373   0.406   0.422   0.420   0.409   0.401   0.416   0.415   0.410   0.397   0.371   0.381   0.352   0.337   0.353   0.335   0.337   0.332   0.337   0.332   0.339   0.345   0.358   0.366   0.346   0.348   0.367   0.376
    19.60    0.355   0.374   0.365   0.373   0.387   0.363   0.359   0.376   0.379   0.403   0.394   0.394   0.397   0.398   0.402   0.401   0.373   0.361   0.354   0.351   0.338   0.327   0.341   0.330   0.356   0.331   0.341   0.338   0.350   0.373   0.351   0.347   0.353   0.356   0.377
    14.95    0.369   0.374   0.388   0.391   0.389   0.375   0.376   0.379   0.376   0.400   0.398   0.378   0.373   0.378   0.383   0.391   0.384   0.349   0.355   0.346   0.341   0.344   0.343   0.346   0.347   0.349   0.335   0.330   0.350   0.345   0.345   0.332   0.330   0.355   0.354
    10.30    0.381   0.388   0.379   0.388   0.396   0.383   0.376   0.382   0.383   0.372   0.379   0.365   0.361   0.366   0.382   0.371   0.385   0.363   0.357   0.357   0.339   0.347   0.349   0.333   0.359   0.355   0.353   0.328   0.347   0.335   0.346   0.325   0.336   0.334   0.354
     5.65    0.371   0.379   0.381   0.386   0.391   0.374   0.377   0.376   0.395   0.390   0.397   0.366   0.355   0.377   0.394   0.391   0.375   0.364   0.364   0.355   0.336   0.350   0.365   0.362   0.366   0.360   0.366   0.366   0.345   0.329   0.345   0.335   0.337   0.358   0.365
     1.00    0.370   0.387   0.393   0.389   0.391   0.385   0.383   0.399   0.402   0.418   0.411   0.381   0.356   0.389   0.395   0.388   0.375   0.367   0.367   0.357   0.366   0.366   0.366   0.363   0.357   0.371   0.358   0.371   0.352   0.348   0.341   0.317   0.323   0.334   0.334

   Height   Standard deviation at grid points for the w component:
   168.40    0.236   0.244   0.246   0.240   0.253   0.241   0.240   0.240   0.234   0.236   0.233   0.230   0.231   0.230   0.231   0.238   0.245   0.251   0.247   0.243   0.244   0.234   0.239   0.233   0.226   0.230   0.233   0.241   0.238   0.244   0.237   0.235   0.233   0.233   0.236
   163.75    0.237   0.250   0.249   0.244   0.247   0.244   0.241   0.239   0.245   0.236   0.240   0.236   0.235   0.240   0.231   0.245   0.245   0.238   0.241   0.240   0.235   0.235   0.232   0.239   0.237   0.234   0.235   0.237   0.243   0.243   0.226   0.228   0.229   0.232   0.240
   159.10    0.240   0.243   0.248   0.247   0.251   0.247   0.241   0.241   0.253   0.240   0.230   0.233   0.238   0.231   0.233   0.231   0.232   0.230   0.231   0.232   0.234   0.227   0.231   0.237   0.239   0.230   0.228   0.236   0.240   0.236   0.223   0.228   0.228   0.234   0.236
   154.45    0.235   0.241   0.238   0.241   0.245   0.236   0.242   0.239   0.242   0.238   0.233   0.230   0.232   0.226   0.231   0.230   0.227   0.225   0.226   0.224   0.225   0.225   0.231   0.232   0.235   0.234   0.239   0.237   0.238   0.232   0.230   0.230   0.231   0.237   0.234
   149.80    0.241   0.245   0.236   0.233   0.244   0.248   0.236   0.233   0.225   0.234   0.234   0.233   0.229   0.227   0.220   0.230   0.239   0.228   0.230   0.230   0.227   0.235   0.234   0.232   0.240   0.240   0.237   0.240   0.236   0.236   0.235   0.237   0.223   0.240   0.233
   145.15    0.241   0.242   0.239   0.232   0.237   0.239   0.240   0.237   0.229   0.240   0.237   0.228   0.232   0.230   0.220   0.227   0.232   0.230   0.223   0.232   0.228   0.242   0.250   0.239   0.243   0.239   0.238   0.236   0.234   0.243   0.236   0.236   0.225   0.229   0.231
   140.50    0.248   0.234   0.238   0.235   0.231   0.241   0.237   0.231   0.239   0.249   0.237   0.228   0.225   0.229   0.227   0.229   0.232   0.229   0.227   0.236   0.232   0.239   0.239   0.242   0.236   0.238   0.236   0.242   0.244   0.239   0.245   0.241   0.229   0.228   0.230
   135.85    0.234   0.231   0.233   0.234   0.233   0.235   0.240   0.234   0.240   0.250   0.245   0.233   0.225   0.232   0.224   0.230   0.227   0.234   0.231   0.232   0.238   0.240   0.240   0.236   0.238   0.233   0.233   0.231   0.243   0.241   0.246   0.243   0.241   0.230   0.235
   131.20    0.234   0.234   0.234   0.230   0.230   0.234   0.242   0.244   0.246   0.240   0.238   0.232   0.228   0.229   0.230   0.235   0.229   0.234   0.232   0.240   0.244   0.241   0.239   0.229   0.233   0.231   0.231   0.232   0.231   0.233   0.235   0.240   0.243   0.231   0.235
   126.55    0.234   0.231   0.231   0.227   0.224   0.225   0.237   0.247   0.243   0.243   0.243   0.239   0.230   0.236   0.233   0.228   0.236   0.233   0.238   0.240   0.238   0.240   0.240   0.237   0.236   0.234   0.232   0.230   0.226   0.232   0.233   0.239   0.232   0.231   0.230
   121.90    0.233   0.225   0.222   0.216   0.214   0.216   0.232   0.241   0.237   0.237   0.239   0.237   0.233   0.232   0.239   0.239   0.244   0.234   0.237   0.244   0.230   0.234   0.230   0.237   0.231   0.233   0.230   0.231   0.224   0.230   0.234   0.240   0.243   0.229   0.239
   117.25    0.230   0.223   0.224   0.222   0.217   0.220   0.235   0.235   0.246   0.239   0.236   0.234   0.232   0.232   0.234   0.238   0.241   0.241   0.230   0.239   0.228   0.236   0.229   0.233   0.232   0.230   0.231   0.225   0.226   0.224   0.237   0.237   0.236   0.248   0.252
   112.60    0.233   0.222   0.223   0.229   0.226   0.228   0.238   0.241   0.244   0.244   0.234   0.237   0.234   0.240   0.249   0.234   0.241   0.228   0.227   0.234   0.239   0.236   0.230   0.230   0.227   0.228   0.228   0.230   0.228   0.230   0.234   0.238   0.244   0.246   0.243
   107.95    0.230   0.226   0.229   0.234   0.227   0.234   0.237   0.241   0.241   0.237   0.236   0.234   0.239   0.239   0.236   0.233   0.235   0.232   0.229   0.242   0.242   0.241   0.229   0.221   0.230   0.229   0.226   0.233   0.233   0.231   0.235   0.236   0.243   0.250   0.246
   103.30    0.228   0.230   0.237   0.235   0.233   0.233   0.232   0.237   0.231   0.242   0.240   0.237   0.233   0.234   0.234   0.229   0.225   0.230   0.232   0.235   0.239   0.240   0.243   0.225   0.235   0.227   0.224   0.231   0.233   0.237   0.239   0.236   0.241   0.244   0.250
    98.65    0.227   0.220   0.234   0.236   0.227   0.227   0.237   0.245   0.245   0.250   0.232   0.229   0.229   0.233   0.234   0.225   0.232   0.226   0.230   0.230   0.236   0.237   0.237   0.242   0.231   0.235   0.232   0.237   0.229   0.236   0.234   0.224   0.231   0.244   0.240
    94.00    0.229   0.229   0.231   0.235   0.232   0.234   0.233   0.239   0.245   0.243   0.231   0.231   0.232   0.230   0.230   0.219   0.226   0.233   0.241   0.231   0.228   0.230   0.227   0.234   0.229   0.233   0.235   0.236   0.232   0.233   0.238   0.231   0.230   0.232   0.235
    89.35    0.233   0.228   0.225   0.223   0.225   0.220   0.226   0.227   0.232   0.227   0.229   0.227   0.228   0.221   0.227   0.227   0.227   0.228   0.242   0.235   0.239   0.240   0.223   0.226   0.233   0.227   0.233   0.237   0.234   0.232   0.238   0.237   0.234   0.230   0.241
    84.70    0.225   0.231   0.228   0.222   0.220   0.219   0.222   0.225   0.224   0.227   0.222   0.229   0.229   0.231   0.229   0.229   0.232   0.243   0.237   0.241   0.230   0.236   0.228   0.229   0.235   0.232   0.230   0.240   0.236   0.237   0.245   0.244   0.238   0.229   0.235
    80.05    0.234   0.230   0.222   0.219   0.214   0.219   0.232   0.226   0.219   0.219   0.221   0.231   0.235   0.227   0.226   0.237   0.242   0.241   0.240   0.243   0.238   0.230   0.221   0.219   0.224   0.226   0.222   0.232   0.242   0.232   0.231   0.242   0.243   0.236   0.229
    75.40    0.239   0.235   0.225   0.218   0.221   0.226   0.224   0.230   0.222   0.220   0.218   0.231   0.222   0.219   0.228   0.241   0.232   0.238   0.247   0.253   0.246   0.238   0.240   0.240   0.237   0.223   0.228   0.233   0.231   0.230   0.231   0.228   0.231   0.236   0.241
    70.75    0.242   0.246   0.243   0.227   0.217   0.218   0.224   0.224   0.220   0.225   0.232   0.234   0.226   0.226   0.226   0.224   0.232   0.240   0.238   0.237   0.245   0.242   0.242   0.239   0.233   0.230   0.238   0.233   0.242   0.238   0.234   0.230   0.236   0.239   0.238
    66.10    0.236   0.236   0.229   0.223   0.225   0.221   0.225   0.215   0.223   0.221   0.232   0.235   0.234   0.225   0.227   0.218   0.229   0.229   0.228   0.231   0.236   0.242   0.241   0.251   0.232   0.236   0.237   0.237   0.242   0.239   0.241   0.232   0.238   0.239   0.242
    61.45    0.232   0.233   0.230   0.226   0.222   0.222   0.215   0.217   0.221   0.225   0.222   0.231   0.232   0.228   0.221   0.220   0.227   0.232   0.234   0.230   0.238   0.232   0.237   0.245   0.234   0.235   0.232   0.231   0.241   0.232   0.233   0.235   0.235   0.241   0.237
    56.80    0.227   0.229   0.230   0.226   0.226   0.219   0.222   0.217   0.217   0.216   0.223   0.224   0.225   0.234   0.222   0.223   0.224   0.223   0.233   0.227   0.235   0.237   0.235   0.236   0.236   0.226   0.230   0.238   0.242   0.235   0.231   0.230   0.234   0.247   0.237
    52.15    0.220   0.223   0.222   0.225   0.225   0.221   0.218   0.215   0.213   0.217   0.216   0.220   0.224   0.224   0.225   0.226   0.221   0.228   0.227   0.227   0.237   0.239   0.236   0.234   0.231   0.224   0.230   0.238   0.237   0.237   0.234   0.231   0.241   0.234   0.244
    47.50    0.225   0.227   0.227   0.229   0.222   0.217   0.219   0.220   0.220   0.225   0.225   0.228   0.230   0.229   0.240   0.225   0.226   0.219   0.230   0.233   0.232   0.232   0.231   0.229   0.227   0.226   0.233   0.238   0.236   0.228   0.228   0.229   0.240   0.240   0.244
    42.85    0.220   0.222   0.227   0.237   0.230   0.228   0.219   0.221   0.220   0.224   0.225   0.230   0.241   0.233   0.232   0.232   0.230   0.223   0.223   0.228   0.226   0.234   0.224   0.233   0.227   0.225   0.233   0.236   0.232   0.239   0.239   0.233   0.240   0.246   0.236
    38.20    0.225   0.226   0.238   0.235   0.231   0.240   0.231   0.226   0.224   0.231   0.237   0.239   0.232   0.229   0.231   0.235   0.238   0.235   0.227   0.231   0.227   0.237   0.237   0.229   0.230   0.226   0.233   0.237   0.240   0.244   0.238   0.242   0.235   0.242   0.228
    33.55    0.230   0.225   0.241   0.235   0.241   0.243   0.234   0.232   0.229   0.227   0.230   0.236   0.233   0.226   0.223   0.230   0.230   0.232   0.226   0.239   0.236   0.239   0.235   0.234   0.227   0.225   0.234   0.247   0.253   0.251   0.252   0.248   0.257   0.243   0.230
    28.90    0.227   0.226   0.238   0.236   0.239   0.239   0.247   0.235   0.230   0.229   0.233   0.229   0.229   0.225   0.225   0.229   0.230   0.239   0.236   0.232   0.237   0.245   0.245   0.237   0.230   0.232   0.242   0.240   0.244   0.252   0.246   0.249   0.249   0.251   0.234
    24.25    0.219   0.220   0.228   0.233   0.239   0.236   0.232   0.222   0.230   0.227   0.229   0.226   0.238   0.229   0.231   0.240   0.232   0.231   0.237   0.231   0.232   0.238   0.235   0.237   0.237   0.237   0.237   0.240   0.238   0.247   0.251   0.248   0.249   0.247   0.243
    19.60    0.225   0.232   0.235   0.234   0.229   0.230   0.227   0.222   0.231   0.230   0.230   0.234   0.232   0.237   0.241   0.240   0.228   0.228   0.232   0.237   0.231   0.232   0.227   0.238   0.236   0.238   0.244   0.243   0.243   0.249   0.246   0.254   0.252   0.240   0.237
    14.95    0.219   0.225   0.242   0.240   0.227   0.230   0.223   0.228   0.238   0.235   0.239   0.228   0.240   0.239   0.237   0.233   0.233   0.219   0.229   0.225   0.233   0.231   0.234   0.238   0.228   0.244   0.250   0.255   0.245   0.254   0.246   0.253   0.254   0.242   0.233
    10.30    0.223   0.220   0.238   0.235   0.230   0.235   0.237   0.229   0.244   0.242   0.238   0.236   0.238   0.234   0.238   0.231   0.229   0.227   0.222   0.224   0.234   0.238   0.232   0.234   0.231   0.238   0.241   0.242   0.236   0.249   0.252   0.258   0.246   0.242   0.246
     5.65    0.224   0.222   0.232   0.230   0.226   0.227   0.229   0.231   0.237   0.240   0.236   0.235   0.237   0.234   0.230   0.236   0.237   0.235   0.223   0.225   0.229   0.232   0.226   0.233   0.235   0.234   0.231   0.232   0.238   0.235   0.234   0.242   0.243   0.248   0.243
     1.00    0.230   0.228   0.229   0.229   0.229   0.230   0.225   0.244   0.236   0.240   0.237   0.243   0.245   0.230   0.235   0.240   0.235   0.232   0.222   0.221   0.220   0.222   0.230   0.234   0.231   0.236   0.233   0.240   0.239   0.243   0.238   0.239   0.235   0.246   0.234

   Mean standard deviation across all grid points:
      u component:    0.423 m/s
      v component:    0.372 m/s
      w component:    0.234 m/s


U-component (X) statistics from the interpolated hub point:

   Mean =   9.9913 m/s
   TI   =   4.5522 %


Processing complete.  6163.3 CPU seconds used.
