
This summary file was generated by TurbSim (from OpenFAST-v3.5.3) on 20-Apr-2025 at 03:15:19.


Runtime Options:

1682697194  Random seed #1
    RANLUX  Type of random number generator
         F  Output binary HH turbulence parameters?
         F  Output formatted turbulence parameters?
         F  Output AeroDyn HH files?
         T  Output AeroDyn FF files?
         F  Output BLADED FF files?
         F  Output tower data?
         F  Output HAWC FF files?
         F  Output formatted FF files?
         T  Output coherent turbulence time step file?
 0 -  NONE  IEC turbulence models scaled to exact specified standard deviation


Turbine/Model Specifications:

        37  Vertical grid-point matrix dimension
        35  Horizontal grid-point matrix dimension
     0.250  Time step [seconds]
   900.000  Analysis time [seconds]
   900.000  Usable output time [seconds]
    89.350  Hub height [m]
   167.400  Grid height [m]
   158.100  Grid width [m]
     0.000  Vertical flow angle [degrees]
     0.000  Horizontal flow angle [degrees]


Meteorological Boundary Conditions:

    TIMESR  User-input time series spectral model
       N/A  IEC standard
       N/A  IEC turbulence characteristic
       N/A  IEC turbulence type
       N/A  IEC Extreme Turbulence Model (ETM) "c" parameter [m/s]
       PL   Wind profile type
    90.000  Reference height [m]
    10.000  Reference wind speed [m/s]
       N/A  Jet height [m]
     0.120  Power law exponent
     0.030  Surface roughness length [m]


Non-IEC Meteorological Boundary Conditions:

    45.000  Site latitude [degrees]
     0.050  Gradient Richardson number
     0.480  Friction or shear velocity [m/s]
       N/A  Mixing layer depth [m]
       N/A  Mean hub u'w' Reynolds stress
       N/A  Mean hub u'v' Reynolds stress
       N/A  Mean hub v'w' Reynolds stress


Spatial Coherence Models:

       IEC  u-component coherence model
       IEC  v-component coherence model
       IEC  w-component coherence model
(   12.000, 0.353E-03)  u-component coherence parameters
(   12.000, 0.353E-03)  v-component coherence parameters
(   12.000, 0.353E-03)  w-component coherence parameters
       N/A  Coherence exponent


Coherent Turbulence Scaling Parameters:

.\EventData
            Name of the path containing the coherent turbulence data files
       les  Type of coherent turbulence data files
     0.500  Disturbance scale (ratio of wave height to rotor diameter)
     0.500  Fractional location of tower centerline from right
     0.000  Fractional location of hub height from the bottom of the dataset
    30.000  Minimum start time for coherent structures [seconds]


Profiles from User-Defined Time-Series Input:

  Height   Wind Speed   Horizontal Angle   Vertical Angle
   (m)        (m/s)          (deg)              (deg)    
  ------   ----------   ----------------   --------------
   94.00      10.00          -0.63               -0.00


You have requested that the following file(s) be generated:

   /kfs3/scratch/agupta/Projects/RL_Incubator/FinalRuns_Veer/Seed4/./FFSim_Seed4/Cond00_v10.0_PL0.12_TI6.0/Case0_wdirp00/Seed_5/TurbSim/HighT16.bts (AeroDyn/TurbSim full-field wind file)


Turbulence Simulation Scaling Parameter Summary:

   Turbulence model used                            =  User-input time series
   Gradient Richardson number                       =    0.050
   Monin-Obukhov (M-O) z/L parameter                =    0.067
   Monin-Obukhov (M-O) length scale                 = 1340.250 m
   Mean wind speed at hub height                    =    9.991 m/s

   Wind profile type                                =  Power law
   Power law exponent                               =    0.120
   Mean shear across rotor disk                     =    0.019 (m/s)/m
   Assumed rotor diameter                           =  158.100 m
   Surface roughness length                         =    0.030 m

   Nyquist frequency of turbulent wind field        =    2.000 Hz

   Number of time steps in the FFT                  =     3600
   Number of time steps output                      =     3600
   Number of points simulated                       =     1296


Mean Flow Angles:

   Vertical   =   0.0 degrees
   Horizontal =   0.0 degrees

Mean Wind Speed Profile:

   Height    Wind Speed   Horizontal Angle  Vertical Angle  U-comp (X)   V-comp (Y)   W-comp (Z)
     (m)        (m/s)         (degrees)       (degrees)       (m/s)        (m/s)        (m/s)   
   ------    ----------   ----------------  --------------  ----------   ----------   ----------
    168.4       10.78            0.00            0.00         10.78         0.00         0.00
    163.7       10.74            0.00            0.00         10.74         0.00         0.00
    159.1       10.71            0.00            0.00         10.71         0.00         0.00
    154.4       10.67            0.00            0.00         10.67         0.00         0.00
    149.8       10.63            0.00            0.00         10.63         0.00         0.00
    145.1       10.59            0.00            0.00         10.59         0.00         0.00
    140.5       10.55            0.00            0.00         10.55         0.00         0.00
    135.8       10.51            0.00            0.00         10.51         0.00         0.00
    131.2       10.46            0.00            0.00         10.46         0.00         0.00
    126.5       10.42            0.00            0.00         10.42         0.00         0.00
    121.9       10.37            0.00            0.00         10.37         0.00         0.00
    117.2       10.32            0.00            0.00         10.32         0.00         0.00
    112.6       10.27            0.00            0.00         10.27         0.00         0.00
    107.9       10.22            0.00            0.00         10.22         0.00         0.00
    103.3       10.17            0.00            0.00         10.17         0.00         0.00
     98.6       10.11            0.00            0.00         10.11         0.00         0.00
     94.0       10.05            0.00            0.00         10.05         0.00         0.00
     89.3        9.99            0.00            0.00          9.99         0.00         0.00
     84.7        9.93            0.00            0.00          9.93         0.00         0.00
     80.0        9.86            0.00            0.00          9.86         0.00         0.00
     75.4        9.79            0.00            0.00          9.79         0.00         0.00
     70.7        9.72            0.00            0.00          9.72         0.00         0.00
     66.1        9.64            0.00            0.00          9.64         0.00         0.00
     61.4        9.55            0.00            0.00          9.55         0.00         0.00
     56.8        9.46            0.00            0.00          9.46         0.00         0.00
     52.1        9.37            0.00            0.00          9.37         0.00         0.00
     47.5        9.26            0.00            0.00          9.26         0.00         0.00
     42.8        9.15            0.00            0.00          9.15         0.00         0.00
     38.2        9.02            0.00            0.00          9.02         0.00         0.00
     33.5        8.88            0.00            0.00          8.88         0.00         0.00
     28.9        8.73            0.00            0.00          8.73         0.00         0.00
     24.2        8.54            0.00            0.00          8.54         0.00         0.00
     19.6        8.33            0.00            0.00          8.33         0.00         0.00
     14.9        8.06            0.00            0.00          8.06         0.00         0.00
     10.3        7.71            0.00            0.00          7.71         0.00         0.00
      5.6        7.17            0.00            0.00          7.17         0.00         0.00
      1.0        5.83            0.00            0.00          5.83         0.00         0.00


Harvested Random Seeds after Generation of the Random Numbers:

     65026800 K 1
            0 K 2


Hub-Height Simulated Turbulence Statistical Summary:

   Type of Wind        Min (m/s)   Mean (m/s)    Max (m/s)  Sigma (m/s)       TI (%)
   ----------------    ---------   ----------    ---------  -----------       ------
   Longitudinal (u)         7.86         9.99        11.56        0.520        5.205
   Lateral (v)             -1.56         0.00         1.64        0.467        4.669
   Vertical (w)            -1.02        -0.00         0.87        0.291        2.914
   U component              7.86         9.99        11.56        0.520        5.205
   V component             -1.56         0.00         1.64        0.467        4.669
   W component             -1.02        -0.00         0.87        0.291        2.914
   Horizontal (U&V)         7.86        10.00        11.56        0.520        5.199
   Total                    7.86        10.01        11.56        0.520        5.199

                       Min Reynolds     Mean Reynolds    Max Reynolds    Correlation
   Product             Stress (m/s)^2   Stress (m/s)^2   Stress (m/s)^2  Coefficient
   ----------------    --------------   --------------   --------------  -----------
   u'w'                     -0.832            -0.003             1.014        -0.017
   u'v'                     -1.231             0.027             2.087         0.112
   v'w'                     -0.860            -0.001             0.756        -0.008


   Friction Velocity (Ustar)  =      0.051 m/s
   Maximum Instantaneous TKE  =      2.272 (m/s)^2
   Maximum Instantaneous CTKE =      1.093 (m/s)^2


Grid Point Variance Summary:

   Y-coord  -79.05  -74.40  -69.75  -65.10  -60.45  -55.80  -51.15  -46.50  -41.85  -37.20  -32.55  -27.90  -23.25  -18.60  -13.95   -9.30   -4.65    0.00    4.65    9.30   13.95   18.60   23.25   27.90   32.55   37.20   41.85   46.50   51.15   55.80   60.45   65.10   69.75   74.40   79.05

   Height   Standard deviation at grid points for the u component:
   168.40    0.607   0.612   0.628   0.601   0.574   0.602   0.611   0.613   0.610   0.595   0.588   0.598   0.544   0.535   0.547   0.553   0.521   0.533   0.515   0.518   0.510   0.486   0.514   0.524   0.532   0.541   0.595   0.566   0.571   0.562   0.565   0.531   0.519   0.519   0.525
   163.75    0.600   0.603   0.564   0.623   0.591   0.578   0.598   0.575   0.592   0.604   0.568   0.575   0.598   0.571   0.574   0.546   0.539   0.553   0.513   0.519   0.503   0.474   0.498   0.535   0.534   0.538   0.559   0.592   0.600   0.567   0.528   0.520   0.513   0.537   0.540
   159.10    0.633   0.575   0.583   0.607   0.615   0.590   0.593   0.571   0.557   0.560   0.564   0.583   0.600   0.620   0.565   0.554   0.537   0.509   0.516   0.467   0.460   0.485   0.526   0.530   0.569   0.575   0.591   0.567   0.596   0.605   0.529   0.492   0.501   0.513   0.501
   154.45    0.587   0.568   0.576   0.590   0.533   0.539   0.577   0.589   0.581   0.593   0.581   0.563   0.600   0.620   0.583   0.519   0.513   0.515   0.487   0.476   0.451   0.462   0.476   0.522   0.516   0.531   0.542   0.570   0.549   0.544   0.550   0.508   0.476   0.477   0.470
   149.80    0.594   0.590   0.552   0.577   0.525   0.554   0.613   0.589   0.574   0.575   0.574   0.579   0.557   0.584   0.557   0.542   0.488   0.514   0.481   0.477   0.500   0.468   0.500   0.490   0.507   0.542   0.508   0.544   0.531   0.557   0.539   0.517   0.497   0.500   0.482
   145.15    0.571   0.587   0.561   0.544   0.547   0.555   0.596   0.582   0.577   0.622   0.578   0.588   0.556   0.536   0.526   0.513   0.524   0.501   0.491   0.462   0.502   0.488   0.498   0.495   0.520   0.525   0.533   0.535   0.515   0.551   0.543   0.535   0.482   0.504   0.483
   140.50    0.587   0.573   0.584   0.542   0.522   0.579   0.585   0.570   0.607   0.607   0.642   0.586   0.534   0.542   0.524   0.519   0.525   0.519   0.491   0.508   0.513   0.505   0.486   0.481   0.495   0.531   0.552   0.542   0.519   0.520   0.476   0.495   0.503   0.540   0.525
   135.85    0.565   0.554   0.558   0.538   0.551   0.537   0.574   0.563   0.565   0.573   0.590   0.554   0.547   0.577   0.535   0.552   0.517   0.503   0.491   0.492   0.520   0.524   0.483   0.474   0.490   0.521   0.574   0.519   0.497   0.568   0.511   0.504   0.505   0.525   0.496
   131.20    0.573   0.539   0.549   0.583   0.510   0.505   0.566   0.566   0.579   0.581   0.560   0.528   0.550   0.541   0.519   0.494   0.515   0.499   0.491   0.480   0.479   0.510   0.514   0.497   0.497   0.516   0.551   0.518   0.547   0.585   0.532   0.526   0.561   0.569   0.535
   126.55    0.560   0.556   0.527   0.499   0.532   0.521   0.547   0.582   0.579   0.596   0.561   0.552   0.560   0.519   0.534   0.514   0.520   0.480   0.519   0.492   0.527   0.509   0.531   0.538   0.517   0.529   0.530   0.563   0.552   0.577   0.602   0.553   0.576   0.573   0.536
   121.90    0.551   0.535   0.479   0.487   0.506   0.475   0.502   0.520   0.576   0.570   0.575   0.539   0.504   0.515   0.539   0.504   0.504   0.524   0.535   0.513   0.505   0.501   0.550   0.547   0.542   0.572   0.583   0.596   0.595   0.567   0.596   0.593   0.576   0.560   0.558
   117.25    0.552   0.496   0.466   0.488   0.475   0.490   0.496   0.516   0.545   0.544   0.549   0.549   0.512   0.546   0.549   0.510   0.494   0.553   0.581   0.544   0.508   0.519   0.547   0.523   0.552   0.597   0.602   0.628   0.572   0.579   0.572   0.585   0.581   0.578   0.577
   112.60    0.527   0.486   0.491   0.463   0.482   0.472   0.486   0.500   0.491   0.536   0.585   0.570   0.508   0.538   0.561   0.552   0.495   0.509   0.583   0.570   0.507   0.483   0.507   0.526   0.553   0.569   0.595   0.581   0.576   0.565   0.557   0.592   0.612   0.609   0.568
   107.95    0.514   0.505   0.510   0.518   0.486   0.494   0.485   0.487   0.502   0.543   0.563   0.543   0.499   0.548   0.560   0.527   0.495   0.503   0.580   0.556   0.512   0.484   0.513   0.560   0.559   0.573   0.551   0.564   0.575   0.581   0.545   0.595   0.597   0.604   0.572
   103.30    0.478   0.476   0.494   0.482   0.538   0.489   0.464   0.480   0.489   0.529   0.545   0.541   0.524   0.545   0.554   0.563   0.542   0.562   0.592   0.590   0.526   0.529   0.545   0.564   0.579   0.579   0.565   0.586   0.607   0.603   0.607   0.564   0.595   0.602   0.557
    98.65    0.517   0.498   0.527   0.515   0.542   0.519   0.468   0.477   0.515   0.532   0.517   0.558   0.577   0.559   0.531   0.548   0.568   0.599   0.571   0.600   0.568   0.589   0.542   0.590   0.584   0.599   0.591   0.618   0.579   0.605   0.595   0.549   0.575   0.578   0.551
    94.00    0.523   0.553   0.553   0.547   0.534   0.519   0.508   0.528   0.491   0.512   0.511   0.553   0.544   0.517   0.520   0.529   0.546   0.558   0.547   0.558   0.575   0.614   0.603   0.571   0.604   0.622   0.646   0.642   0.626   0.595   0.572   0.572   0.559   0.559   0.509
    89.35    0.492   0.536   0.527   0.538   0.523   0.560   0.575   0.520   0.523   0.543   0.541   0.537   0.534   0.539   0.497   0.512   0.547   0.520   0.560   0.615   0.578   0.582   0.598   0.612   0.620   0.614   0.601   0.637   0.638   0.593   0.582   0.524   0.528   0.539   0.546
    84.70    0.529   0.536   0.512   0.555   0.557   0.551   0.565   0.553   0.552   0.559   0.575   0.561   0.551   0.527   0.536   0.534   0.519   0.531   0.546   0.579   0.582   0.558   0.607   0.608   0.625   0.601   0.573   0.604   0.588   0.556   0.566   0.556   0.533   0.557   0.597
    80.05    0.545   0.553   0.520   0.539   0.585   0.571   0.568   0.565   0.547   0.539   0.568   0.572   0.590   0.566   0.535   0.539   0.555   0.517   0.557   0.571   0.581   0.606   0.629   0.623   0.625   0.633   0.629   0.625   0.602   0.610   0.592   0.634   0.638   0.577   0.569
    75.40    0.513   0.525   0.558   0.565   0.586   0.592   0.564   0.567   0.542   0.571   0.595   0.582   0.608   0.573   0.568   0.535   0.521   0.539   0.542   0.566   0.565   0.638   0.644   0.602   0.606   0.607   0.631   0.610   0.597   0.588   0.601   0.613   0.609   0.573   0.530
    70.75    0.513   0.505   0.525   0.541   0.571   0.578   0.579   0.569   0.588   0.563   0.561   0.595   0.592   0.595   0.600   0.569   0.541   0.554   0.538   0.518   0.608   0.634   0.618   0.652   0.650   0.633   0.644   0.599   0.576   0.567   0.556   0.596   0.547   0.551   0.508
    66.10    0.483   0.504   0.505   0.514   0.505   0.556   0.555   0.560   0.553   0.517   0.563   0.613   0.608   0.585   0.601   0.573   0.514   0.511   0.498   0.538   0.602   0.625   0.612   0.609   0.653   0.641   0.629   0.573   0.550   0.541   0.519   0.556   0.550   0.564   0.493
    61.45    0.491   0.477   0.497   0.520   0.485   0.524   0.530   0.507   0.525   0.548   0.552   0.590   0.625   0.606   0.607   0.572   0.566   0.519   0.523   0.514   0.517   0.570   0.603   0.598   0.561   0.592   0.585   0.587   0.584   0.509   0.524   0.552   0.519   0.519   0.511
    56.80    0.516   0.503   0.479   0.483   0.472   0.511   0.518   0.521   0.541   0.547   0.536   0.552   0.559   0.569   0.595   0.546   0.558   0.545   0.536   0.534   0.516   0.579   0.590   0.549   0.525   0.538   0.555   0.554   0.524   0.530   0.521   0.521   0.562   0.564   0.538
    52.15    0.507   0.530   0.492   0.483   0.481   0.493   0.547   0.531   0.539   0.513   0.502   0.538   0.525   0.551   0.561   0.570   0.572   0.518   0.504   0.544   0.519   0.548   0.556   0.556   0.538   0.562   0.526   0.560   0.532   0.560   0.564   0.607   0.597   0.580   0.562
    47.50    0.553   0.544   0.562   0.538   0.519   0.505   0.519   0.544   0.527   0.505   0.505   0.499   0.526   0.505   0.549   0.567   0.529   0.529   0.519   0.532   0.538   0.523   0.538   0.547   0.546   0.573   0.578   0.586   0.556   0.589   0.587   0.618   0.649   0.622   0.616
    42.85    0.565   0.567   0.576   0.535   0.510   0.515   0.506   0.493   0.495   0.476   0.500   0.497   0.480   0.516   0.557   0.572   0.541   0.542   0.517   0.513   0.528   0.540   0.507   0.510   0.525   0.561   0.574   0.629   0.626   0.607   0.584   0.585   0.674   0.634   0.627
    38.20    0.549   0.562   0.559   0.533   0.516   0.477   0.481   0.495   0.474   0.473   0.487   0.515   0.516   0.534   0.556   0.552   0.569   0.546   0.552   0.524   0.530   0.528   0.492   0.493   0.489   0.539   0.567   0.598   0.615   0.614   0.603   0.633   0.685   0.677   0.627
    33.55    0.550   0.534   0.515   0.523   0.505   0.454   0.452   0.436   0.458   0.481   0.505   0.522   0.525   0.561   0.578   0.566   0.572   0.543   0.535   0.563   0.533   0.538   0.483   0.467   0.519   0.506   0.580   0.605   0.624   0.657   0.599   0.624   0.662   0.666   0.634
    28.90    0.508   0.491   0.459   0.488   0.476   0.462   0.447   0.474   0.477   0.495   0.495   0.528   0.540   0.566   0.565   0.553   0.554   0.570   0.574   0.561   0.525   0.515   0.517   0.478   0.501   0.513   0.570   0.613   0.563   0.610   0.618   0.635   0.632   0.639   0.578
    24.25    0.519   0.492   0.494   0.442   0.463   0.459   0.446   0.463   0.455   0.484   0.481   0.510   0.567   0.570   0.587   0.548   0.556   0.579   0.586   0.535   0.523   0.508   0.529   0.500   0.479   0.494   0.555   0.560   0.610   0.607   0.607   0.626   0.598   0.584   0.571
    19.60    0.501   0.490   0.486   0.472   0.463   0.427   0.459   0.461   0.454   0.479   0.489   0.515   0.527   0.578   0.530   0.569   0.562   0.582   0.576   0.539   0.503   0.501   0.494   0.499   0.499   0.525   0.558   0.542   0.552   0.608   0.650   0.618   0.597   0.584   0.583
    14.95    0.499   0.491   0.506   0.497   0.498   0.484   0.472   0.452   0.459   0.483   0.502   0.521   0.512   0.518   0.521   0.533   0.546   0.562   0.535   0.539   0.541   0.512   0.524   0.523   0.488   0.514   0.531   0.528   0.564   0.607   0.629   0.625   0.589   0.578   0.583
    10.30    0.518   0.530   0.535   0.536   0.493   0.487   0.479   0.451   0.483   0.506   0.506   0.509   0.506   0.497   0.520   0.494   0.534   0.535   0.536   0.550   0.523   0.550   0.565   0.548   0.536   0.544   0.548   0.531   0.584   0.596   0.623   0.633   0.612   0.597   0.599
     5.65    0.545   0.544   0.571   0.568   0.548   0.520   0.504   0.471   0.486   0.483   0.498   0.493   0.479   0.489   0.521   0.542   0.534   0.531   0.540   0.526   0.516   0.543   0.566   0.550   0.541   0.540   0.560   0.521   0.556   0.586   0.558   0.602   0.603   0.599   0.576
     1.00    0.530   0.549   0.568   0.575   0.540   0.516   0.503   0.463   0.452   0.476   0.465   0.479   0.494   0.473   0.495   0.501   0.536   0.524   0.537   0.566   0.519   0.552   0.583   0.597   0.585   0.543   0.544   0.512   0.528   0.514   0.526   0.540   0.575   0.607   0.620

   Height   Standard deviation at grid points for the v component:
   168.40    0.460   0.450   0.457   0.457   0.465   0.464   0.460   0.472   0.457   0.482   0.487   0.493   0.492   0.475   0.449   0.464   0.485   0.467   0.474   0.475   0.460   0.499   0.456   0.463   0.455   0.444   0.437   0.450   0.422   0.427   0.433   0.449   0.423   0.417   0.448
   163.75    0.482   0.454   0.448   0.450   0.448   0.452   0.441   0.475   0.462   0.471   0.466   0.470   0.513   0.497   0.470   0.490   0.504   0.483   0.466   0.486   0.472   0.494   0.457   0.471   0.453   0.461   0.437   0.451   0.446   0.445   0.441   0.432   0.430   0.431   0.443
   159.10    0.458   0.466   0.446   0.435   0.446   0.433   0.447   0.447   0.467   0.471   0.466   0.466   0.499   0.515   0.496   0.508   0.500   0.473   0.468   0.473   0.487   0.469   0.477   0.465   0.438   0.454   0.474   0.464   0.465   0.458   0.442   0.431   0.420   0.427   0.460
   154.45    0.445   0.464   0.452   0.443   0.428   0.440   0.439   0.450   0.462   0.439   0.445   0.456   0.485   0.498   0.492   0.491   0.511   0.462   0.477   0.467   0.460   0.460   0.475   0.453   0.442   0.445   0.457   0.486   0.491   0.468   0.448   0.426   0.423   0.446   0.467
   149.80    0.449   0.457   0.436   0.456   0.431   0.432   0.417   0.451   0.448   0.435   0.461   0.505   0.502   0.486   0.488   0.469   0.512   0.477   0.462   0.471   0.463   0.457   0.432   0.451   0.412   0.424   0.469   0.484   0.458   0.466   0.451   0.437   0.430   0.430   0.452
   145.15    0.438   0.442   0.433   0.433   0.429   0.428   0.416   0.427   0.445   0.461   0.489   0.503   0.484   0.484   0.499   0.490   0.496   0.481   0.481   0.468   0.448   0.461   0.455   0.429   0.434   0.449   0.460   0.479   0.434   0.426   0.430   0.435   0.442   0.432   0.442
   140.50    0.433   0.413   0.421   0.428   0.434   0.420   0.418   0.410   0.431   0.470   0.483   0.495   0.501   0.504   0.491   0.515   0.468   0.458   0.471   0.472   0.469   0.485   0.486   0.435   0.414   0.433   0.452   0.452   0.446   0.422   0.425   0.432   0.439   0.443   0.433
   135.85    0.451   0.454   0.440   0.436   0.437   0.426   0.424   0.412   0.421   0.443   0.466   0.469   0.461   0.494   0.521   0.503   0.507   0.489   0.486   0.473   0.468   0.465   0.463   0.436   0.435   0.430   0.435   0.428   0.460   0.416   0.436   0.417   0.415   0.414   0.433
   131.20    0.428   0.456   0.423   0.441   0.447   0.420   0.424   0.409   0.417   0.440   0.447   0.451   0.467   0.496   0.507   0.493   0.471   0.493   0.491   0.475   0.453   0.439   0.445   0.438   0.427   0.428   0.425   0.447   0.434   0.417   0.429   0.413   0.426   0.435   0.450
   126.55    0.452   0.448   0.435   0.457   0.462   0.430   0.426   0.420   0.410   0.434   0.441   0.450   0.450   0.512   0.493   0.482   0.470   0.526   0.476   0.474   0.464   0.457   0.466   0.451   0.420   0.437   0.444   0.436   0.424   0.419   0.418   0.420   0.416   0.457   0.471
   121.90    0.439   0.437   0.443   0.481   0.454   0.443   0.424   0.414   0.426   0.432   0.440   0.436   0.458   0.516   0.484   0.504   0.518   0.531   0.496   0.464   0.452   0.435   0.458   0.462   0.466   0.428   0.429   0.437   0.434   0.431   0.419   0.425   0.428   0.442   0.440
   117.25    0.459   0.437   0.459   0.454   0.462   0.433   0.435   0.429   0.455   0.446   0.455   0.450   0.462   0.504   0.472   0.500   0.501   0.509   0.483   0.454   0.457   0.473   0.489   0.460   0.474   0.465   0.432   0.460   0.447   0.472   0.446   0.430   0.415   0.416   0.440
   112.60    0.481   0.472   0.452   0.454   0.458   0.450   0.456   0.447   0.458   0.463   0.463   0.480   0.475   0.495   0.525   0.493   0.475   0.498   0.459   0.480   0.473   0.476   0.475   0.471   0.457   0.475   0.451   0.441   0.465   0.487   0.485   0.476   0.431   0.416   0.441
   107.95    0.488   0.502   0.483   0.488   0.484   0.461   0.463   0.461   0.441   0.448   0.434   0.435   0.474   0.482   0.499   0.497   0.488   0.462   0.488   0.483   0.462   0.470   0.461   0.478   0.481   0.466   0.430   0.443   0.480   0.520   0.523   0.494   0.481   0.432   0.463
   103.30    0.457   0.476   0.472   0.466   0.470   0.439   0.465   0.465   0.438   0.431   0.433   0.435   0.470   0.480   0.469   0.500   0.532   0.502   0.501   0.496   0.446   0.466   0.469   0.451   0.470   0.471   0.459   0.454   0.507   0.506   0.501   0.482   0.457   0.461   0.476
    98.65    0.448   0.438   0.464   0.448   0.452   0.437   0.449   0.455   0.441   0.442   0.471   0.457   0.469   0.440   0.465   0.480   0.505   0.491   0.474   0.483   0.456   0.460   0.469   0.438   0.462   0.448   0.484   0.483   0.497   0.498   0.512   0.489   0.498   0.511   0.462
    94.00    0.453   0.460   0.451   0.481   0.450   0.451   0.469   0.480   0.470   0.451   0.447   0.448   0.461   0.465   0.462   0.484   0.444   0.487   0.495   0.468   0.479   0.443   0.432   0.425   0.459   0.457   0.484   0.512   0.510   0.467   0.488   0.493   0.477   0.477   0.468
    89.35    0.465   0.450   0.444   0.435   0.454   0.459   0.465   0.466   0.440   0.456   0.440   0.436   0.446   0.449   0.423   0.457   0.434   0.467   0.456   0.463   0.446   0.425   0.442   0.454   0.456   0.485   0.518   0.508   0.499   0.502   0.464   0.465   0.449   0.455   0.443
    84.70    0.469   0.444   0.469   0.459   0.439   0.455   0.474   0.482   0.483   0.456   0.455   0.450   0.442   0.480   0.485   0.465   0.479   0.448   0.472   0.415   0.440   0.465   0.439   0.482   0.472   0.455   0.496   0.484   0.499   0.481   0.489   0.467   0.470   0.461   0.438
    80.05    0.447   0.454   0.461   0.458   0.436   0.443   0.467   0.477   0.471   0.466   0.450   0.450   0.443   0.452   0.489   0.473   0.487   0.464   0.449   0.425   0.452   0.432   0.443   0.472   0.486   0.491   0.480   0.487   0.495   0.453   0.447   0.470   0.496   0.469   0.456
    75.40    0.461   0.451   0.457   0.458   0.445   0.446   0.483   0.468   0.465   0.472   0.481   0.459   0.446   0.444   0.478   0.472   0.479   0.472   0.439   0.423   0.432   0.449   0.463   0.474   0.494   0.492   0.471   0.485   0.506   0.471   0.447   0.427   0.450   0.496   0.486
    70.75    0.435   0.437   0.446   0.454   0.454   0.441   0.474   0.488   0.478   0.491   0.475   0.468   0.481   0.488   0.489   0.477   0.472   0.463   0.452   0.420   0.454   0.428   0.439   0.447   0.485   0.494   0.469   0.476   0.471   0.434   0.425   0.421   0.441   0.507   0.526
    66.10    0.408   0.419   0.450   0.451   0.463   0.460   0.460   0.460   0.480   0.493   0.497   0.498   0.480   0.504   0.525   0.541   0.496   0.464   0.460   0.429   0.439   0.439   0.443   0.456   0.475   0.496   0.493   0.500   0.454   0.441   0.431   0.448   0.453   0.484   0.508
    61.45    0.438   0.416   0.458   0.458   0.463   0.458   0.476   0.475   0.461   0.477   0.471   0.497   0.495   0.518   0.530   0.537   0.521   0.493   0.472   0.435   0.469   0.484   0.466   0.463   0.454   0.467   0.494   0.463   0.460   0.430   0.432   0.421   0.456   0.466   0.473
    56.80    0.419   0.441   0.464   0.469   0.476   0.468   0.501   0.509   0.506   0.515   0.501   0.522   0.508   0.523   0.518   0.565   0.558   0.514   0.482   0.482   0.466   0.461   0.465   0.490   0.469   0.468   0.445   0.481   0.459   0.451   0.428   0.417   0.456   0.452   0.460
    52.15    0.445   0.438   0.431   0.468   0.468   0.464   0.488   0.476   0.518   0.553   0.543   0.558   0.558   0.573   0.532   0.559   0.566   0.550   0.482   0.494   0.511   0.467   0.449   0.437   0.466   0.467   0.441   0.425   0.464   0.448   0.462   0.471   0.459   0.433   0.443
    47.50    0.469   0.458   0.455   0.453   0.479   0.490   0.488   0.470   0.480   0.538   0.552   0.563   0.589   0.579   0.553   0.524   0.529   0.493   0.502   0.516   0.515   0.461   0.479   0.446   0.468   0.478   0.443   0.422   0.455   0.430   0.464   0.487   0.456   0.449   0.436
    42.85    0.480   0.497   0.477   0.459   0.465   0.476   0.509   0.506   0.518   0.555   0.589   0.590   0.598   0.574   0.589   0.556   0.526   0.499   0.479   0.511   0.487   0.491   0.475   0.456   0.471   0.458   0.444   0.437   0.457   0.472   0.453   0.444   0.451   0.432   0.426
    38.20    0.517   0.479   0.471   0.482   0.458   0.451   0.472   0.493   0.508   0.555   0.585   0.607   0.545   0.575   0.576   0.586   0.516   0.524   0.522   0.501   0.489   0.510   0.460   0.470   0.470   0.480   0.481   0.459   0.475   0.473   0.489   0.458   0.434   0.419   0.409
    33.55    0.507   0.492   0.474   0.477   0.466   0.445   0.456   0.477   0.479   0.526   0.580   0.562   0.545   0.593   0.590   0.567   0.506   0.528   0.510   0.504   0.485   0.456   0.464   0.442   0.451   0.465   0.466   0.493   0.491   0.505   0.471   0.434   0.422   0.440   0.428
    28.90    0.512   0.471   0.460   0.449   0.468   0.435   0.427   0.480   0.478   0.522   0.564   0.552   0.559   0.583   0.571   0.516   0.503   0.513   0.498   0.467   0.442   0.445   0.436   0.416   0.431   0.433   0.451   0.475   0.503   0.474   0.465   0.460   0.468   0.464   0.422
    24.25    0.483   0.454   0.444   0.453   0.473   0.452   0.446   0.456   0.509   0.536   0.532   0.531   0.553   0.579   0.558   0.549   0.508   0.484   0.470   0.440   0.426   0.430   0.436   0.421   0.431   0.453   0.435   0.437   0.460   0.494   0.491   0.450   0.438   0.468   0.448
    19.60    0.479   0.483   0.444   0.442   0.466   0.454   0.440   0.468   0.502   0.531   0.509   0.498   0.528   0.551   0.555   0.546   0.474   0.469   0.450   0.430   0.454   0.410   0.411   0.432   0.438   0.430   0.424   0.399   0.435   0.449   0.439   0.449   0.460   0.464   0.462
    14.95    0.491   0.498   0.477   0.488   0.486   0.496   0.484   0.491   0.500   0.536   0.529   0.504   0.508   0.515   0.544   0.511   0.470   0.433   0.436   0.444   0.422   0.436   0.424   0.439   0.434   0.429   0.429   0.422   0.439   0.440   0.458   0.438   0.416   0.459   0.448
    10.30    0.497   0.478   0.487   0.522   0.528   0.501   0.494   0.480   0.482   0.494   0.515   0.481   0.489   0.493   0.509   0.473   0.473   0.468   0.444   0.438   0.441   0.434   0.414   0.404   0.429   0.442   0.466   0.449   0.425   0.423   0.442   0.437   0.436   0.421   0.451
     5.65    0.471   0.473   0.501   0.523   0.516   0.461   0.466   0.494   0.510   0.517   0.498   0.476   0.460   0.487   0.484   0.475   0.461   0.447   0.445   0.441   0.407   0.411   0.407   0.405   0.418   0.440   0.441   0.444   0.430   0.431   0.471   0.470   0.456   0.445   0.443
     1.00    0.451   0.483   0.515   0.503   0.495   0.483   0.466   0.487   0.493   0.531   0.495   0.493   0.456   0.496   0.457   0.442   0.431   0.434   0.432   0.394   0.419   0.420   0.424   0.417   0.422   0.427   0.419   0.425   0.415   0.431   0.459   0.435   0.414   0.402   0.417

   Height   Standard deviation at grid points for the w component:
   168.40    0.313   0.320   0.309   0.303   0.312   0.299   0.293   0.294   0.286   0.288   0.300   0.295   0.289   0.289   0.293   0.295   0.312   0.333   0.317   0.322   0.326   0.314   0.319   0.302   0.291   0.296   0.287   0.303   0.299   0.307   0.300   0.285   0.290   0.288   0.293
   163.75    0.313   0.324   0.315   0.307   0.303   0.303   0.304   0.299   0.304   0.293   0.288   0.299   0.292   0.294   0.294   0.312   0.303   0.306   0.315   0.312   0.309   0.303   0.301   0.294   0.291   0.292   0.288   0.297   0.300   0.315   0.296   0.279   0.285   0.291   0.302
   159.10    0.317   0.317   0.328   0.309   0.311   0.310   0.304   0.302   0.304   0.302   0.296   0.294   0.294   0.279   0.289   0.288   0.292   0.294   0.299   0.310   0.297   0.291   0.290   0.287   0.298   0.278   0.288   0.302   0.305   0.312   0.298   0.290   0.290   0.285   0.298
   154.45    0.313   0.329   0.325   0.311   0.313   0.306   0.299   0.302   0.296   0.305   0.295   0.290   0.291   0.284   0.278   0.284   0.289   0.287   0.291   0.290   0.292   0.282   0.286   0.290   0.293   0.296   0.309   0.312   0.302   0.298   0.292   0.287   0.295   0.292   0.290
   149.80    0.326   0.343   0.326   0.311   0.325   0.326   0.302   0.303   0.281   0.298   0.296   0.281   0.285   0.289   0.270   0.281   0.291   0.298   0.294   0.294   0.284   0.294   0.282   0.288   0.299   0.297   0.305   0.302   0.305   0.296   0.289   0.300   0.291   0.310   0.299
   145.15    0.322   0.340   0.329   0.311   0.326   0.321   0.326   0.315   0.294   0.306   0.298   0.280   0.288   0.287   0.276   0.279   0.301   0.289   0.297   0.305   0.297   0.312   0.304   0.298   0.299   0.300   0.295   0.316   0.307   0.311   0.303   0.308   0.302   0.310   0.302
   140.50    0.327   0.331   0.331   0.317   0.314   0.329   0.314   0.300   0.302   0.317   0.309   0.291   0.280   0.288   0.283   0.294   0.294   0.298   0.299   0.299   0.299   0.300   0.305   0.302   0.304   0.303   0.301   0.316   0.326   0.310   0.306   0.310   0.304   0.319   0.311
   135.85    0.316   0.315   0.324   0.321   0.309   0.322   0.326   0.313   0.320   0.319   0.314   0.314   0.291   0.286   0.282   0.299   0.298   0.312   0.307   0.301   0.305   0.303   0.306   0.300   0.296   0.286   0.295   0.305   0.317   0.314   0.313   0.303   0.313   0.314   0.335
   131.20    0.316   0.321   0.316   0.309   0.306   0.312   0.326   0.313   0.324   0.316   0.313   0.301   0.295   0.287   0.282   0.303   0.300   0.307   0.312   0.313   0.305   0.300   0.291   0.297   0.300   0.283   0.284   0.301   0.299   0.299   0.294   0.312   0.313   0.309   0.323
   126.55    0.309   0.309   0.296   0.294   0.306   0.298   0.312   0.319   0.319   0.320   0.321   0.311   0.302   0.296   0.291   0.292   0.306   0.318   0.314   0.303   0.290   0.299   0.297   0.296   0.296   0.295   0.287   0.294   0.294   0.301   0.300   0.306   0.290   0.305   0.309
   121.90    0.310   0.295   0.292   0.289   0.286   0.286   0.302   0.324   0.324   0.316   0.317   0.305   0.294   0.296   0.304   0.315   0.323   0.322   0.316   0.310   0.293   0.287   0.281   0.290   0.285   0.288   0.280   0.296   0.293   0.300   0.301   0.312   0.306   0.304   0.324
   117.25    0.294   0.292   0.289   0.288   0.284   0.291   0.316   0.318   0.325   0.313   0.308   0.300   0.299   0.300   0.295   0.316   0.328   0.322   0.304   0.303   0.293   0.291   0.290   0.290   0.287   0.281   0.285   0.281   0.294   0.289   0.301   0.306   0.312   0.324   0.334
   112.60    0.293   0.289   0.287   0.281   0.289   0.294   0.318   0.320   0.322   0.325   0.314   0.313   0.306   0.304   0.318   0.310   0.317   0.308   0.310   0.307   0.308   0.299   0.300   0.292   0.285   0.277   0.278   0.275   0.287   0.292   0.298   0.315   0.322   0.330   0.333
   107.95    0.294   0.291   0.290   0.298   0.281   0.300   0.306   0.315   0.324   0.322   0.315   0.313   0.313   0.316   0.308   0.300   0.309   0.313   0.314   0.327   0.307   0.309   0.297   0.287   0.293   0.286   0.282   0.283   0.293   0.287   0.300   0.307   0.319   0.319   0.332
   103.30    0.291   0.292   0.301   0.297   0.300   0.306   0.309   0.305   0.314   0.326   0.317   0.306   0.306   0.312   0.301   0.301   0.301   0.301   0.294   0.302   0.307   0.311   0.298   0.281   0.294   0.295   0.293   0.287   0.294   0.292   0.309   0.306   0.323   0.334   0.329
    98.65    0.303   0.288   0.290   0.299   0.287   0.295   0.315   0.316   0.326   0.330   0.308   0.304   0.307   0.316   0.309   0.299   0.303   0.288   0.287   0.294   0.306   0.305   0.298   0.295   0.288   0.293   0.295   0.300   0.288   0.296   0.300   0.296   0.309   0.324   0.316
    94.00    0.307   0.310   0.300   0.295   0.293   0.292   0.300   0.315   0.321   0.310   0.307   0.302   0.304   0.307   0.306   0.303   0.301   0.289   0.298   0.296   0.284   0.291   0.281   0.281   0.288   0.289   0.293   0.288   0.291   0.287   0.294   0.304   0.304   0.315   0.311
    89.35    0.304   0.298   0.297   0.284   0.288   0.280   0.283   0.289   0.293   0.303   0.300   0.294   0.303   0.305   0.309   0.305   0.312   0.291   0.294   0.288   0.275   0.281   0.281   0.284   0.293   0.281   0.280   0.289   0.290   0.284   0.299   0.308   0.304   0.303   0.313
    84.70    0.294   0.298   0.296   0.283   0.285   0.287   0.291   0.290   0.285   0.292   0.289   0.295   0.304   0.312   0.303   0.305   0.300   0.296   0.294   0.294   0.276   0.283   0.280   0.282   0.278   0.288   0.280   0.286   0.288   0.291   0.301   0.305   0.304   0.296   0.301
    80.05    0.304   0.298   0.287   0.288   0.287   0.286   0.302   0.306   0.292   0.280   0.279   0.294   0.297   0.295   0.306   0.317   0.301   0.296   0.290   0.299   0.289   0.275   0.266   0.271   0.271   0.271   0.272   0.283   0.291   0.288   0.297   0.305   0.312   0.307   0.304
    75.40    0.306   0.299   0.287   0.281   0.287   0.292   0.289   0.298   0.285   0.277   0.283   0.297   0.293   0.291   0.307   0.314   0.286   0.291   0.297   0.313   0.298   0.299   0.288   0.300   0.278   0.272   0.269   0.283   0.284   0.297   0.300   0.293   0.291   0.302   0.316
    70.75    0.309   0.303   0.296   0.286   0.292   0.283   0.291   0.292   0.286   0.292   0.299   0.299   0.300   0.301   0.302   0.296   0.294   0.296   0.294   0.297   0.303   0.293   0.301   0.294   0.290   0.266   0.268   0.273   0.290   0.289   0.290   0.288   0.297   0.301   0.307
    66.10    0.303   0.291   0.284   0.287   0.299   0.287   0.286   0.279   0.291   0.289   0.301   0.299   0.305   0.309   0.307   0.282   0.286   0.283   0.283   0.286   0.295   0.308   0.290   0.290   0.279   0.270   0.274   0.286   0.285   0.283   0.287   0.284   0.293   0.304   0.310
    61.45    0.291   0.292   0.289   0.302   0.299   0.289   0.277   0.277   0.279   0.291   0.291   0.287   0.296   0.300   0.289   0.278   0.280   0.283   0.291   0.289   0.293   0.289   0.289   0.288   0.276   0.271   0.274   0.275   0.289   0.290   0.283   0.295   0.294   0.303   0.304
    56.80    0.288   0.286   0.297   0.300   0.297   0.290   0.283   0.282   0.265   0.281   0.291   0.289   0.284   0.300   0.286   0.282   0.274   0.282   0.289   0.275   0.284   0.294   0.291   0.286   0.281   0.267   0.280   0.287   0.295   0.298   0.289   0.291   0.291   0.312   0.300
    52.15    0.278   0.287   0.295   0.299   0.295   0.292   0.285   0.271   0.283   0.284   0.285   0.283   0.281   0.281   0.292   0.291   0.281   0.287   0.279   0.281   0.299   0.300   0.298   0.286   0.288   0.273   0.283   0.293   0.297   0.298   0.288   0.288   0.303   0.300   0.309
    47.50    0.288   0.302   0.291   0.303   0.292   0.282   0.277   0.288   0.293   0.300   0.293   0.301   0.300   0.300   0.298   0.280   0.287   0.274   0.283   0.292   0.295   0.295   0.293   0.290   0.291   0.287   0.291   0.294   0.300   0.290   0.289   0.291   0.300   0.306   0.313
    42.85    0.286   0.293   0.290   0.304   0.305   0.301   0.289   0.288   0.290   0.298   0.300   0.305   0.303   0.288   0.291   0.287   0.284   0.280   0.278   0.290   0.290   0.305   0.293   0.301   0.279   0.290   0.294   0.291   0.301   0.315   0.313   0.300   0.302   0.309   0.294
    38.20    0.295   0.293   0.317   0.309   0.316   0.315   0.293   0.296   0.294   0.315   0.327   0.312   0.303   0.313   0.310   0.294   0.293   0.289   0.280   0.282   0.286   0.293   0.310   0.302   0.292   0.298   0.296   0.300   0.308   0.315   0.326   0.317   0.307   0.307   0.293
    33.55    0.295   0.296   0.316   0.313   0.322   0.316   0.305   0.297   0.295   0.312   0.323   0.335   0.317   0.316   0.303   0.300   0.292   0.284   0.287   0.295   0.289   0.289   0.301   0.296   0.297   0.290   0.300   0.312   0.328   0.327   0.342   0.330   0.335   0.310   0.284
    28.90    0.295   0.298   0.310   0.303   0.320   0.319   0.331   0.316   0.314   0.324   0.329   0.319   0.321   0.321   0.318   0.315   0.308   0.299   0.296   0.296   0.292   0.304   0.313   0.312   0.292   0.301   0.303   0.304   0.311   0.325   0.330   0.327   0.317   0.313   0.293
    24.25    0.297   0.293   0.290   0.309   0.315   0.322   0.322   0.327   0.329   0.323   0.325   0.326   0.327   0.320   0.311   0.322   0.314   0.300   0.306   0.296   0.298   0.287   0.304   0.309   0.321   0.315   0.295   0.295   0.302   0.311   0.325   0.317   0.307   0.305   0.303
    19.60    0.295   0.299   0.308   0.310   0.309   0.322   0.317   0.326   0.340   0.332   0.318   0.312   0.306   0.304   0.315   0.320   0.307   0.298   0.284   0.304   0.293   0.288   0.299   0.313   0.313   0.325   0.328   0.308   0.297   0.313   0.308   0.317   0.316   0.294   0.293
    14.95    0.294   0.301   0.324   0.325   0.315   0.324   0.321   0.327   0.337   0.332   0.333   0.298   0.313   0.314   0.310   0.296   0.306   0.291   0.293   0.301   0.310   0.305   0.304   0.308   0.304   0.327   0.330   0.337   0.321   0.328   0.314   0.313   0.321   0.309   0.294
    10.30    0.306   0.302   0.326   0.316   0.309   0.324   0.326   0.311   0.312   0.325   0.315   0.296   0.311   0.300   0.301   0.293   0.293   0.299   0.292   0.291   0.304   0.309   0.306   0.306   0.293   0.306   0.313   0.312   0.311   0.327   0.326   0.333   0.317   0.305   0.312
     5.65    0.300   0.298   0.314   0.311   0.307   0.310   0.308   0.304   0.305   0.315   0.307   0.301   0.300   0.291   0.298   0.298   0.305   0.301   0.294   0.296   0.300   0.294   0.296   0.303   0.308   0.300   0.300   0.297   0.304   0.299   0.301   0.312   0.313   0.323   0.313
     1.00    0.306   0.296   0.296   0.304   0.302   0.302   0.282   0.310   0.305   0.313   0.302   0.307   0.302   0.283   0.290   0.299   0.294   0.297   0.283   0.287   0.289   0.285   0.288   0.302   0.297   0.304   0.291   0.301   0.298   0.307   0.306   0.309   0.306   0.314   0.304

   Mean standard deviation across all grid points:
      u component:    0.546 m/s
      v component:    0.466 m/s
      w component:    0.300 m/s


U-component (X) statistics from the interpolated hub point:

   Mean =   9.9913 m/s
   TI   =   5.2054 %


Processing complete.  5387.6 CPU seconds used.
