
This summary file was generated by TurbSim (from OpenFAST-v3.5.3) on 20-Apr-2025 at 09:22:09.


Runtime Options:

 376932526  Random seed #1
    RANLUX  Type of random number generator
         F  Output binary HH turbulence parameters?
         F  Output formatted turbulence parameters?
         F  Output AeroDyn HH files?
         T  Output AeroDyn FF files?
         F  Output BLADED FF files?
         F  Output tower data?
         F  Output HAWC FF files?
         F  Output formatted FF files?
         T  Output coherent turbulence time step file?
 0 -  NONE  IEC turbulence models scaled to exact specified standard deviation


Turbine/Model Specifications:

        37  Vertical grid-point matrix dimension
        35  Horizontal grid-point matrix dimension
     0.250  Time step [seconds]
   900.000  Analysis time [seconds]
   900.000  Usable output time [seconds]
    89.350  Hub height [m]
   167.400  Grid height [m]
   158.100  Grid width [m]
     0.000  Vertical flow angle [degrees]
     0.000  Horizontal flow angle [degrees]


Meteorological Boundary Conditions:

    TIMESR  User-input time series spectral model
       N/A  IEC standard
       N/A  IEC turbulence characteristic
       N/A  IEC turbulence type
       N/A  IEC Extreme Turbulence Model (ETM) "c" parameter [m/s]
       PL   Wind profile type
    90.000  Reference height [m]
    10.000  Reference wind speed [m/s]
       N/A  Jet height [m]
     0.120  Power law exponent
     0.030  Surface roughness length [m]


Non-IEC Meteorological Boundary Conditions:

    45.000  Site latitude [degrees]
     0.050  Gradient Richardson number
     0.480  Friction or shear velocity [m/s]
       N/A  Mixing layer depth [m]
       N/A  Mean hub u'w' Reynolds stress
       N/A  Mean hub u'v' Reynolds stress
       N/A  Mean hub v'w' Reynolds stress


Spatial Coherence Models:

       IEC  u-component coherence model
       IEC  v-component coherence model
       IEC  w-component coherence model
(   12.000, 0.353E-03)  u-component coherence parameters
(   12.000, 0.353E-03)  v-component coherence parameters
(   12.000, 0.353E-03)  w-component coherence parameters
       N/A  Coherence exponent


Coherent Turbulence Scaling Parameters:

.\EventData
            Name of the path containing the coherent turbulence data files
       les  Type of coherent turbulence data files
     1.000  Disturbance scale (ratio of wave height to rotor diameter)
     0.500  Fractional location of tower centerline from right
     0.500  Fractional location of hub height from the bottom of the dataset
    30.000  Minimum start time for coherent structures [seconds]


Profiles from User-Defined Time-Series Input:

  Height   Wind Speed   Horizontal Angle   Vertical Angle
   (m)        (m/s)          (deg)              (deg)    
  ------   ----------   ----------------   --------------
   94.00      10.00          -0.63               -0.00


You have requested that the following file(s) be generated:

   /kfs3/scratch/agupta/Projects/RL_Incubator/FinalRuns_Veer/Seed4/./FFSim_Seed4/Cond00_v10.0_PL0.12_TI7.5/Case2_wdirp04/Seed_6/TurbSim/HighT7.bts (AeroDyn/TurbSim full-field wind file)


Turbulence Simulation Scaling Parameter Summary:

   Turbulence model used                            =  User-input time series
   Gradient Richardson number                       =    0.050
   Monin-Obukhov (M-O) z/L parameter                =    0.067
   Monin-Obukhov (M-O) length scale                 = 1340.250 m
   Mean wind speed at hub height                    =    9.991 m/s

   Wind profile type                                =  Power law
   Power law exponent                               =    0.120
   Mean shear across rotor disk                     =    0.019 (m/s)/m
   Assumed rotor diameter                           =  158.100 m
   Surface roughness length                         =    0.030 m

   Nyquist frequency of turbulent wind field        =    2.000 Hz

   Number of time steps in the FFT                  =     3600
   Number of time steps output                      =     3600
   Number of points simulated                       =     1296


Mean Flow Angles:

   Vertical   =   0.0 degrees
   Horizontal =   0.0 degrees

Mean Wind Speed Profile:

   Height    Wind Speed   Horizontal Angle  Vertical Angle  U-comp (X)   V-comp (Y)   W-comp (Z)
     (m)        (m/s)         (degrees)       (degrees)       (m/s)        (m/s)        (m/s)   
   ------    ----------   ----------------  --------------  ----------   ----------   ----------
    168.4       10.78            0.00            0.00         10.78         0.00         0.00
    163.7       10.74            0.00            0.00         10.74         0.00         0.00
    159.1       10.71            0.00            0.00         10.71         0.00         0.00
    154.4       10.67            0.00            0.00         10.67         0.00         0.00
    149.8       10.63            0.00            0.00         10.63         0.00         0.00
    145.1       10.59            0.00            0.00         10.59         0.00         0.00
    140.5       10.55            0.00            0.00         10.55         0.00         0.00
    135.8       10.51            0.00            0.00         10.51         0.00         0.00
    131.2       10.46            0.00            0.00         10.46         0.00         0.00
    126.5       10.42            0.00            0.00         10.42         0.00         0.00
    121.9       10.37            0.00            0.00         10.37         0.00         0.00
    117.2       10.32            0.00            0.00         10.32         0.00         0.00
    112.6       10.27            0.00            0.00         10.27         0.00         0.00
    107.9       10.22            0.00            0.00         10.22         0.00         0.00
    103.3       10.17            0.00            0.00         10.17         0.00         0.00
     98.6       10.11            0.00            0.00         10.11         0.00         0.00
     94.0       10.05            0.00            0.00         10.05         0.00         0.00
     89.3        9.99            0.00            0.00          9.99         0.00         0.00
     84.7        9.93            0.00            0.00          9.93         0.00         0.00
     80.0        9.86            0.00            0.00          9.86         0.00         0.00
     75.4        9.79            0.00            0.00          9.79         0.00         0.00
     70.7        9.72            0.00            0.00          9.72         0.00         0.00
     66.1        9.64            0.00            0.00          9.64         0.00         0.00
     61.4        9.55            0.00            0.00          9.55         0.00         0.00
     56.8        9.46            0.00            0.00          9.46         0.00         0.00
     52.1        9.37            0.00            0.00          9.37         0.00         0.00
     47.5        9.26            0.00            0.00          9.26         0.00         0.00
     42.8        9.15            0.00            0.00          9.15         0.00         0.00
     38.2        9.02            0.00            0.00          9.02         0.00         0.00
     33.5        8.88            0.00            0.00          8.88         0.00         0.00
     28.9        8.73            0.00            0.00          8.73         0.00         0.00
     24.2        8.54            0.00            0.00          8.54         0.00         0.00
     19.6        8.33            0.00            0.00          8.33         0.00         0.00
     14.9        8.06            0.00            0.00          8.06         0.00         0.00
     10.3        7.71            0.00            0.00          7.71         0.00         0.00
      5.6        7.17            0.00            0.00          7.17         0.00         0.00
      1.0        5.83            0.00            0.00          5.83         0.00         0.00


Harvested Random Seeds after Generation of the Random Numbers:

     65026800 K 1
            0 K 2


Hub-Height Simulated Turbulence Statistical Summary:

   Type of Wind        Min (m/s)   Mean (m/s)    Max (m/s)  Sigma (m/s)       TI (%)
   ----------------    ---------   ----------    ---------  -----------       ------
   Longitudinal (u)         7.73         9.99        12.21        0.733        7.339
   Lateral (v)             -2.10         0.00         1.79        0.610        6.104
   Vertical (w)            -1.17        -0.00         1.17        0.345        3.454
   U component              7.73         9.99        12.21        0.733        7.339
   V component             -2.10         0.00         1.79        0.610        6.104
   W component             -1.17        -0.00         1.17        0.345        3.454
   Horizontal (U&V)         7.74        10.01        12.23        0.734        7.335
   Total                    7.74        10.02        12.24        0.734        7.331

                       Min Reynolds     Mean Reynolds    Max Reynolds    Correlation
   Product             Stress (m/s)^2   Stress (m/s)^2   Stress (m/s)^2  Coefficient
   ----------------    --------------   --------------   --------------  -----------
   u'w'                     -1.481             0.014             1.867         0.057
   u'v'                     -2.729            -0.047             2.124        -0.106
   v'w'                     -1.361             0.006             1.353         0.026


   Friction Velocity (Ustar)  =      0.120 m/s
   Maximum Instantaneous TKE  =      3.175 (m/s)^2
   Maximum Instantaneous CTKE =      1.679 (m/s)^2


Grid Point Variance Summary:

   Y-coord  -79.05  -74.40  -69.75  -65.10  -60.45  -55.80  -51.15  -46.50  -41.85  -37.20  -32.55  -27.90  -23.25  -18.60  -13.95   -9.30   -4.65    0.00    4.65    9.30   13.95   18.60   23.25   27.90   32.55   37.20   41.85   46.50   51.15   55.80   60.45   65.10   69.75   74.40   79.05

   Height   Standard deviation at grid points for the u component:
   168.40    0.663   0.672   0.664   0.619   0.633   0.625   0.635   0.620   0.635   0.615   0.593   0.566   0.581   0.599   0.595   0.537   0.587   0.621   0.618   0.637   0.646   0.618   0.636   0.713   0.711   0.702   0.697   0.710   0.747   0.732   0.682   0.637   0.652   0.655   0.663
   163.75    0.689   0.667   0.703   0.668   0.666   0.674   0.667   0.637   0.602   0.585   0.592   0.573   0.623   0.626   0.587   0.577   0.595   0.618   0.620   0.603   0.624   0.673   0.679   0.720   0.731   0.701   0.755   0.747   0.767   0.727   0.695   0.673   0.633   0.641   0.637
   159.10    0.713   0.717   0.711   0.645   0.691   0.713   0.673   0.671   0.652   0.620   0.604   0.593   0.631   0.618   0.587   0.589   0.609   0.647   0.631   0.567   0.632   0.698   0.715   0.701   0.721   0.716   0.756   0.789   0.746   0.688   0.689   0.704   0.675   0.678   0.681
   154.45    0.722   0.693   0.635   0.626   0.669   0.671   0.666   0.617   0.639   0.573   0.558   0.570   0.576   0.602   0.595   0.620   0.616   0.638   0.613   0.625   0.649   0.658   0.704   0.693   0.706   0.736   0.703   0.786   0.750   0.722   0.663   0.654   0.689   0.672   0.688
   149.80    0.684   0.665   0.636   0.628   0.646   0.651   0.660   0.608   0.617   0.598   0.622   0.619   0.629   0.621   0.643   0.605   0.602   0.574   0.649   0.620   0.676   0.703   0.694   0.700   0.715   0.748   0.712   0.745   0.784   0.719   0.686   0.659   0.718   0.681   0.634
   145.15    0.653   0.638   0.655   0.656   0.657   0.685   0.684   0.647   0.608   0.641   0.688   0.717   0.673   0.692   0.663   0.682   0.626   0.605   0.687   0.683   0.705   0.675   0.670   0.676   0.702   0.746   0.725   0.758   0.743   0.722   0.721   0.701   0.695   0.720   0.680
   140.50    0.617   0.600   0.633   0.638   0.662   0.677   0.689   0.655   0.658   0.685   0.671   0.738   0.702   0.689   0.735   0.718   0.677   0.676   0.729   0.756   0.699   0.679   0.662   0.652   0.731   0.754   0.726   0.719   0.678   0.698   0.736   0.720   0.726   0.688   0.674
   135.85    0.634   0.650   0.656   0.622   0.686   0.714   0.704   0.632   0.651   0.625   0.706   0.717   0.702   0.729   0.750   0.732   0.735   0.721   0.735   0.796   0.763   0.727   0.692   0.721   0.742   0.724   0.669   0.682   0.705   0.710   0.735   0.744   0.738   0.715   0.683
   131.20    0.689   0.715   0.677   0.663   0.648   0.664   0.666   0.655   0.649   0.668   0.664   0.716   0.749   0.727   0.707   0.718   0.691   0.723   0.731   0.763   0.773   0.766   0.760   0.741   0.740   0.692   0.678   0.657   0.651   0.732   0.738   0.749   0.784   0.824   0.757
   126.55    0.710   0.693   0.668   0.644   0.665   0.660   0.597   0.629   0.636   0.633   0.683   0.725   0.715   0.714   0.683   0.694   0.690   0.719   0.726   0.729   0.713   0.763   0.771   0.777   0.753   0.695   0.658   0.665   0.675   0.711   0.742   0.750   0.783   0.809   0.770
   121.90    0.738   0.697   0.664   0.671   0.670   0.679   0.653   0.656   0.622   0.632   0.688   0.705   0.739   0.683   0.680   0.698   0.750   0.736   0.732   0.739   0.751   0.731   0.757   0.791   0.759   0.721   0.666   0.651   0.678   0.737   0.768   0.781   0.730   0.748   0.759
   117.25    0.689   0.691   0.678   0.714   0.697   0.715   0.695   0.746   0.698   0.641   0.684   0.723   0.712   0.694   0.674   0.729   0.758   0.725   0.700   0.722   0.714   0.748   0.714   0.791   0.734   0.744   0.665   0.706   0.715   0.740   0.771   0.786   0.759   0.801   0.753
   112.60    0.662   0.636   0.695   0.700   0.726   0.746   0.743   0.755   0.700   0.623   0.679   0.630   0.662   0.645   0.708   0.728   0.763   0.725   0.702   0.678   0.685   0.670   0.721   0.765   0.766   0.778   0.687   0.677   0.658   0.750   0.744   0.764   0.782   0.771   0.742
   107.95    0.669   0.620   0.677   0.691   0.707   0.725   0.739   0.722   0.673   0.662   0.657   0.628   0.641   0.679   0.716   0.731   0.760   0.711   0.686   0.675   0.688   0.677   0.696   0.730   0.733   0.767   0.753   0.656   0.681   0.730   0.700   0.728   0.717   0.753   0.695
   103.30    0.656   0.663   0.661   0.642   0.682   0.742   0.712   0.688   0.645   0.622   0.631   0.649   0.678   0.719   0.702   0.755   0.752   0.710   0.671   0.701   0.716   0.708   0.678   0.712   0.733   0.724   0.713   0.683   0.711   0.741   0.678   0.665   0.702   0.729   0.721
    98.65    0.686   0.645   0.659   0.681   0.762   0.759   0.690   0.703   0.684   0.660   0.664   0.715   0.770   0.755   0.746   0.777   0.779   0.735   0.721   0.704   0.692   0.722   0.699   0.731   0.718   0.691   0.676   0.682   0.691   0.720   0.683   0.704   0.656   0.649   0.692
    94.00    0.654   0.626   0.683   0.707   0.770   0.712   0.681   0.648   0.705   0.692   0.714   0.759   0.744   0.692   0.744   0.773   0.790   0.723   0.694   0.633   0.666   0.659   0.705   0.699   0.735   0.697   0.689   0.703   0.678   0.664   0.713   0.668   0.618   0.667   0.634
    89.35    0.641   0.635   0.646   0.695   0.701   0.679   0.687   0.721   0.696   0.711   0.724   0.706   0.681   0.685   0.722   0.746   0.744   0.733   0.700   0.636   0.661   0.675   0.734   0.749   0.748   0.739   0.706   0.720   0.671   0.726   0.724   0.707   0.641   0.650   0.661
    84.70    0.631   0.594   0.619   0.639   0.648   0.672   0.674   0.664   0.647   0.644   0.646   0.662   0.640   0.660   0.670   0.696   0.714   0.699   0.669   0.649   0.693   0.701   0.721   0.724   0.726   0.731   0.705   0.725   0.686   0.700   0.711   0.688   0.695   0.624   0.624
    80.05    0.600   0.640   0.624   0.676   0.673   0.689   0.653   0.615   0.612   0.640   0.590   0.610   0.598   0.612   0.638   0.682   0.727   0.741   0.656   0.639   0.655   0.651   0.668   0.706   0.680   0.688   0.696   0.718   0.704   0.701   0.730   0.684   0.643   0.601   0.598
    75.40    0.622   0.637   0.675   0.692   0.680   0.641   0.660   0.624   0.616   0.618   0.585   0.598   0.649   0.620   0.649   0.688   0.690   0.699   0.644   0.662   0.633   0.692   0.685   0.690   0.696   0.712   0.716   0.712   0.683   0.722   0.725   0.697   0.611   0.577   0.567
    70.75    0.707   0.707   0.677   0.641   0.648   0.646   0.669   0.647   0.620   0.616   0.622   0.609   0.653   0.629   0.644   0.628   0.687   0.681   0.640   0.646   0.657   0.681   0.732   0.689   0.676   0.750   0.776   0.708   0.670   0.711   0.746   0.688   0.654   0.610   0.606
    66.10    0.709   0.730   0.697   0.656   0.664   0.654   0.674   0.652   0.612   0.572   0.590   0.627   0.648   0.622   0.635   0.647   0.701   0.699   0.710   0.644   0.641   0.703   0.729   0.720   0.694   0.719   0.765   0.751   0.686   0.755   0.776   0.723   0.657   0.644   0.652
    61.45    0.694   0.717   0.738   0.712   0.695   0.672   0.673   0.638   0.611   0.580   0.637   0.615   0.647   0.631   0.651   0.647   0.659   0.675   0.703   0.693   0.691   0.734   0.744   0.731   0.710   0.715   0.742   0.732   0.709   0.696   0.743   0.739   0.721   0.704   0.710
    56.80    0.728   0.732   0.753   0.722   0.720   0.644   0.640   0.661   0.650   0.651   0.633   0.615   0.621   0.613   0.684   0.654   0.634   0.659   0.663   0.670   0.702   0.729   0.764   0.782   0.758   0.719   0.751   0.718   0.730   0.691   0.736   0.757   0.709   0.706   0.737
    52.15    0.721   0.752   0.705   0.728   0.743   0.685   0.691   0.680   0.671   0.657   0.665   0.631   0.595   0.627   0.640   0.617   0.637   0.654   0.660   0.628   0.652   0.690   0.751   0.740   0.763   0.743   0.730   0.715   0.731   0.712   0.742   0.756   0.748   0.708   0.703
    47.50    0.768   0.734   0.704   0.721   0.716   0.710   0.709   0.715   0.649   0.653   0.659   0.630   0.619   0.637   0.644   0.612   0.655   0.690   0.690   0.686   0.707   0.713   0.716   0.743   0.733   0.705   0.693   0.723   0.710   0.678   0.748   0.758   0.727   0.734   0.714
    42.85    0.779   0.788   0.741   0.723   0.730   0.663   0.671   0.700   0.668   0.632   0.608   0.642   0.633   0.650   0.637   0.633   0.645   0.686   0.692   0.695   0.712   0.663   0.688   0.718   0.760   0.698   0.699   0.714   0.668   0.703   0.759   0.725   0.749   0.738   0.746
    38.20    0.803   0.788   0.808   0.719   0.663   0.689   0.709   0.676   0.656   0.591   0.614   0.616   0.629   0.644   0.630   0.621   0.660   0.683   0.683   0.638   0.678   0.684   0.707   0.747   0.751   0.774   0.721   0.705   0.726   0.730   0.726   0.701   0.704   0.733   0.748
    33.55    0.784   0.799   0.770   0.719   0.693   0.700   0.671   0.629   0.627   0.551   0.547   0.568   0.592   0.616   0.630   0.631   0.633   0.681   0.650   0.650   0.672   0.667   0.681   0.685   0.722   0.697   0.731   0.733   0.718   0.754   0.720   0.720   0.710   0.718   0.733
    28.90    0.760   0.729   0.687   0.687   0.702   0.678   0.650   0.618   0.589   0.600   0.574   0.586   0.624   0.631   0.664   0.642   0.655   0.621   0.642   0.636   0.662   0.694   0.688   0.695   0.641   0.698   0.708   0.712   0.751   0.747   0.736   0.690   0.687   0.729   0.688
    24.25    0.705   0.699   0.676   0.704   0.675   0.694   0.654   0.625   0.607   0.600   0.578   0.620   0.652   0.666   0.671   0.618   0.596   0.616   0.635   0.628   0.641   0.722   0.673   0.662   0.682   0.701   0.690   0.705   0.692   0.785   0.709   0.709   0.702   0.727   0.678
    19.60    0.738   0.725   0.716   0.651   0.669   0.665   0.628   0.596   0.587   0.646   0.624   0.673   0.640   0.686   0.655   0.637   0.642   0.667   0.631   0.614   0.648   0.668   0.678   0.685   0.712   0.688   0.685   0.720   0.701   0.754   0.752   0.731   0.734   0.763   0.757
    14.95    0.767   0.699   0.672   0.650   0.669   0.656   0.637   0.594   0.606   0.604   0.631   0.690   0.701   0.665   0.638   0.606   0.666   0.672   0.642   0.628   0.630   0.649   0.657   0.695   0.697   0.709   0.735   0.704   0.704   0.765   0.716   0.658   0.690   0.710   0.681
    10.30    0.755   0.641   0.658   0.677   0.662   0.620   0.591   0.614   0.594   0.572   0.592   0.677   0.681   0.668   0.695   0.648   0.674   0.677   0.653   0.640   0.650   0.665   0.669   0.677   0.684   0.708   0.676   0.715   0.699   0.742   0.682   0.676   0.665   0.679   0.626
     5.65    0.783   0.689   0.668   0.647   0.609   0.556   0.585   0.581   0.568   0.548   0.593   0.614   0.662   0.683   0.664   0.670   0.685   0.653   0.642   0.623   0.642   0.669   0.641   0.637   0.642   0.685   0.689   0.719   0.711   0.748   0.744   0.690   0.634   0.613   0.643
     1.00    0.778   0.730   0.683   0.666   0.595   0.587   0.611   0.613   0.580   0.550   0.576   0.590   0.618   0.632   0.638   0.659   0.648   0.653   0.693   0.636   0.662   0.731   0.674   0.675   0.662   0.671   0.668   0.684   0.696   0.687   0.720   0.687   0.643   0.614   0.618

   Height   Standard deviation at grid points for the v component:
   168.40    0.720   0.686   0.658   0.647   0.657   0.667   0.698   0.688   0.670   0.649   0.617   0.611   0.578   0.598   0.629   0.661   0.618   0.592   0.625   0.648   0.675   0.609   0.605   0.602   0.646   0.622   0.594   0.621   0.620   0.677   0.675   0.718   0.707   0.724   0.676
   163.75    0.730   0.708   0.639   0.646   0.660   0.659   0.692   0.675   0.677   0.648   0.620   0.619   0.592   0.670   0.676   0.640   0.582   0.574   0.587   0.649   0.663   0.616   0.626   0.625   0.610   0.641   0.623   0.638   0.617   0.620   0.665   0.702   0.692   0.673   0.668
   159.10    0.721   0.729   0.661   0.626   0.660   0.612   0.631   0.655   0.656   0.607   0.612   0.607   0.609   0.628   0.652   0.631   0.612   0.574   0.572   0.639   0.664   0.658   0.666   0.719   0.692   0.665   0.647   0.641   0.611   0.615   0.630   0.645   0.715   0.708   0.688
   154.45    0.681   0.699   0.645   0.708   0.703   0.625   0.643   0.640   0.613   0.613   0.571   0.581   0.627   0.648   0.625   0.618   0.639   0.572   0.551   0.621   0.647   0.657   0.632   0.668   0.711   0.736   0.672   0.662   0.640   0.664   0.608   0.604   0.661   0.636   0.647
   149.80    0.641   0.622   0.677   0.701   0.660   0.684   0.669   0.659   0.608   0.593   0.611   0.585   0.592   0.627   0.594   0.595   0.593   0.571   0.617   0.649   0.654   0.646   0.674   0.734   0.730   0.738   0.706   0.691   0.658   0.655   0.635   0.623   0.630   0.645   0.607
   145.15    0.666   0.664   0.677   0.668   0.621   0.630   0.623   0.641   0.615   0.577   0.572   0.580   0.596   0.591   0.580   0.569   0.584   0.597   0.588   0.632   0.601   0.645   0.689   0.689   0.673   0.682   0.695   0.676   0.691   0.679   0.644   0.628   0.638   0.601   0.601
   140.50    0.698   0.695   0.717   0.644   0.605   0.589   0.626   0.632   0.643   0.582   0.582   0.583   0.589   0.580   0.609   0.561   0.588   0.615   0.595   0.639   0.627   0.623   0.650   0.682   0.699   0.653   0.624   0.642   0.663   0.679   0.619   0.604   0.644   0.636   0.596
   135.85    0.681   0.722   0.682   0.633   0.629   0.615   0.593   0.630   0.609   0.599   0.579   0.574   0.615   0.583   0.592   0.589   0.622   0.628   0.566   0.623   0.638   0.696   0.684   0.677   0.679   0.674   0.637   0.648   0.660   0.677   0.683   0.624   0.637   0.662   0.639
   131.20    0.669   0.646   0.697   0.649   0.608   0.589   0.574   0.580   0.549   0.548   0.559   0.586   0.639   0.612   0.636   0.606   0.643   0.615   0.615   0.620   0.642   0.688   0.727   0.738   0.724   0.670   0.636   0.648   0.691   0.693   0.696   0.639   0.627   0.631   0.644
   126.55    0.666   0.688   0.676   0.665   0.610   0.599   0.576   0.518   0.534   0.563   0.591   0.585   0.612   0.657   0.601   0.596   0.594   0.633   0.648   0.628   0.664   0.702   0.713   0.758   0.731   0.706   0.695   0.733   0.689   0.683   0.677   0.638   0.642   0.608   0.575
   121.90    0.636   0.671   0.669   0.648   0.631   0.602   0.599   0.551   0.549   0.576   0.597   0.601   0.580   0.622   0.625   0.607   0.603   0.599   0.617   0.651   0.648   0.687   0.749   0.780   0.750   0.730   0.687   0.737   0.690   0.636   0.640   0.642   0.620   0.586   0.551
   117.25    0.659   0.665   0.668   0.604   0.634   0.612   0.616   0.613   0.589   0.561   0.608   0.630   0.647   0.655   0.658   0.613   0.640   0.613   0.649   0.663   0.643   0.684   0.721   0.762   0.810   0.770   0.731   0.709   0.715   0.672   0.619   0.618   0.577   0.567   0.578
   112.60    0.633   0.628   0.645   0.621   0.601   0.596   0.608   0.619   0.611   0.569   0.587   0.623   0.631   0.648   0.642   0.637   0.617   0.639   0.681   0.717   0.677   0.697   0.679   0.733   0.745   0.742   0.744   0.732   0.717   0.666   0.610   0.632   0.620   0.589   0.544
   107.95    0.687   0.664   0.648   0.661   0.606   0.612   0.600   0.589   0.588   0.558   0.564   0.638   0.647   0.661   0.657   0.622   0.619   0.630   0.685   0.690   0.714   0.688   0.696   0.700   0.718   0.740   0.751   0.764   0.733   0.683   0.654   0.643   0.637   0.589   0.578
   103.30    0.670   0.681   0.661   0.667   0.638   0.595   0.562   0.577   0.574   0.581   0.565   0.600   0.626   0.638   0.649   0.614   0.672   0.667   0.663   0.672   0.693   0.686   0.712   0.710   0.722   0.763   0.796   0.787   0.731   0.684   0.667   0.651   0.626   0.598   0.599
    98.65    0.642   0.648   0.629   0.689   0.606   0.625   0.609   0.577   0.594   0.557   0.568   0.587   0.616   0.625   0.618   0.635   0.657   0.625   0.662   0.630   0.647   0.656   0.666   0.666   0.726   0.758   0.748   0.741   0.728   0.685   0.642   0.655   0.605   0.573   0.576
    94.00    0.628   0.604   0.627   0.626   0.638   0.635   0.595   0.564   0.618   0.585   0.554   0.550   0.583   0.637   0.673   0.620   0.630   0.645   0.645   0.647   0.629   0.626   0.627   0.671   0.692   0.711   0.737   0.682   0.695   0.709   0.683   0.653   0.599   0.557   0.583
    89.35    0.663   0.631   0.589   0.608   0.619   0.613   0.589   0.593   0.579   0.591   0.550   0.540   0.584   0.648   0.652   0.648   0.662   0.610   0.592   0.609   0.606   0.593   0.616   0.670   0.695   0.716   0.724   0.697   0.673   0.694   0.682   0.661   0.623   0.569   0.571
    84.70    0.698   0.667   0.634   0.591   0.615   0.620   0.646   0.617   0.617   0.617   0.565   0.609   0.646   0.614   0.601   0.614   0.632   0.606   0.604   0.586   0.621   0.606   0.587   0.623   0.676   0.690   0.657   0.717   0.688   0.698   0.642   0.660   0.603   0.600   0.600
    80.05    0.687   0.677   0.637   0.626   0.594   0.639   0.619   0.645   0.674   0.691   0.650   0.632   0.629   0.619   0.591   0.577   0.613   0.559   0.563   0.582   0.596   0.621   0.610   0.634   0.627   0.651   0.671   0.672   0.656   0.639   0.635   0.643   0.623   0.623   0.606
    75.40    0.621   0.600   0.626   0.602   0.638   0.631   0.635   0.647   0.698   0.676   0.620   0.635   0.644   0.621   0.610   0.625   0.585   0.555   0.560   0.592   0.600   0.603   0.614   0.617   0.622   0.661   0.681   0.710   0.693   0.638   0.628   0.634   0.621   0.622   0.565
    70.75    0.619   0.576   0.592   0.601   0.634   0.627   0.642   0.632   0.645   0.618   0.609   0.640   0.630   0.627   0.599   0.598   0.576   0.569   0.580   0.583   0.589   0.594   0.596   0.596   0.618   0.643   0.684   0.722   0.703   0.669   0.639   0.608   0.555   0.584   0.557
    66.10    0.620   0.599   0.600   0.619   0.621   0.603   0.632   0.635   0.626   0.594   0.598   0.643   0.635   0.605   0.574   0.588   0.569   0.581   0.566   0.584   0.600   0.633   0.589   0.614   0.662   0.695   0.679   0.653   0.678   0.696   0.678   0.616   0.578   0.538   0.556
    61.45    0.631   0.605   0.569   0.575   0.613   0.627   0.625   0.573   0.594   0.599   0.567   0.600   0.603   0.571   0.566   0.590   0.598   0.554   0.559   0.597   0.630   0.663   0.636   0.607   0.661   0.688   0.654   0.686   0.651   0.666   0.691   0.617   0.561   0.534   0.542
    56.80    0.640   0.601   0.567   0.572   0.582   0.597   0.604   0.587   0.569   0.556   0.551   0.584   0.538   0.562   0.570   0.578   0.564   0.572   0.593   0.595   0.629   0.644   0.664   0.654   0.647   0.709   0.681   0.662   0.663   0.665   0.634   0.628   0.580   0.537   0.539
    52.15    0.634   0.604   0.566   0.589   0.597   0.604   0.556   0.549   0.577   0.552   0.568   0.588   0.560   0.551   0.576   0.583   0.576   0.592   0.598   0.634   0.634   0.644   0.663   0.643   0.685   0.701   0.719   0.699   0.683   0.690   0.664   0.616   0.593   0.554   0.569
    47.50    0.626   0.614   0.575   0.546   0.536   0.541   0.537   0.526   0.540   0.547   0.552   0.548   0.570   0.563   0.547   0.608   0.611   0.649   0.637   0.635   0.640   0.661   0.658   0.650   0.690   0.714   0.673   0.686   0.641   0.673   0.655   0.638   0.578   0.575   0.536
    42.85    0.594   0.589   0.563   0.542   0.529   0.514   0.539   0.541   0.532   0.572   0.592   0.566   0.588   0.575   0.575   0.596   0.655   0.664   0.628   0.645   0.648   0.643   0.641   0.632   0.678   0.704   0.712   0.663   0.642   0.630   0.610   0.568   0.583   0.576   0.546
    38.20    0.578   0.587   0.586   0.550   0.540   0.570   0.565   0.550   0.557   0.572   0.586   0.567   0.576   0.591   0.589   0.599   0.628   0.627   0.639   0.642   0.674   0.628   0.643   0.642   0.637   0.682   0.659   0.636   0.636   0.587   0.587   0.564   0.608   0.578   0.574
    33.55    0.574   0.575   0.551   0.598   0.580   0.593   0.580   0.572   0.547   0.565   0.577   0.570   0.550   0.570   0.589   0.563   0.585   0.637   0.636   0.654   0.629   0.649   0.619   0.596   0.590   0.619   0.652   0.663   0.607   0.574   0.567   0.583   0.589   0.587   0.574
    28.90    0.563   0.573   0.573   0.617   0.621   0.649   0.599   0.578   0.567   0.534   0.531   0.549   0.559   0.580   0.562   0.536   0.532   0.597   0.583   0.596   0.581   0.620   0.608   0.580   0.630   0.622   0.626   0.613   0.587   0.575   0.604   0.565   0.579   0.578   0.585
    24.25    0.593   0.565   0.599   0.610   0.630   0.646   0.610   0.587   0.586   0.559   0.537   0.548   0.555   0.592   0.576   0.563   0.557   0.575   0.536   0.537   0.594   0.609   0.592   0.611   0.616   0.613   0.601   0.601   0.590   0.595   0.585   0.588   0.565   0.573   0.575
    19.60    0.592   0.577   0.616   0.623   0.622   0.621   0.629   0.620   0.582   0.567   0.545   0.530   0.557   0.554   0.557   0.584   0.567   0.600   0.555   0.547   0.585   0.564   0.585   0.611   0.589   0.568   0.596   0.575   0.586   0.575   0.544   0.578   0.539   0.558   0.573
    14.95    0.592   0.576   0.560   0.599   0.592   0.628   0.620   0.589   0.613   0.593   0.553   0.546   0.527   0.570   0.572   0.582   0.583   0.562   0.576   0.594   0.556   0.582   0.576   0.586   0.619   0.591   0.553   0.598   0.565   0.548   0.544   0.565   0.533   0.553   0.578
    10.30    0.596   0.607   0.588   0.599   0.557   0.595   0.580   0.604   0.588   0.580   0.557   0.550   0.576   0.585   0.574   0.572   0.600   0.597   0.612   0.597   0.597   0.595   0.570   0.567   0.592   0.555   0.575   0.555   0.546   0.546   0.567   0.579   0.561   0.539   0.569
     5.65    0.613   0.644   0.630   0.628   0.618   0.606   0.614   0.593   0.593   0.553   0.569   0.590   0.586   0.583   0.566   0.556   0.599   0.615   0.595   0.576   0.602   0.590   0.590   0.556   0.572   0.569   0.566   0.556   0.552   0.536   0.564   0.572   0.551   0.548   0.602
     1.00    0.625   0.644   0.643   0.633   0.657   0.659   0.655   0.619   0.571   0.585   0.554   0.571   0.578   0.571   0.540   0.578   0.579   0.595   0.617   0.581   0.589   0.598   0.569   0.535   0.538   0.547   0.528   0.539   0.507   0.531   0.541   0.568   0.533   0.557   0.570

   Height   Standard deviation at grid points for the w component:
   168.40    0.357   0.364   0.349   0.358   0.360   0.361   0.358   0.353   0.353   0.332   0.355   0.347   0.354   0.352   0.356   0.354   0.351   0.345   0.337   0.346   0.346   0.354   0.339   0.332   0.336   0.347   0.342   0.333   0.352   0.335   0.331   0.328   0.337   0.336   0.337
   163.75    0.353   0.358   0.352   0.352   0.355   0.356   0.355   0.356   0.349   0.352   0.342   0.343   0.339   0.338   0.334   0.339   0.350   0.354   0.364   0.344   0.338   0.349   0.355   0.342   0.340   0.332   0.330   0.320   0.341   0.338   0.332   0.329   0.329   0.336   0.337
   159.10    0.346   0.356   0.350   0.343   0.347   0.345   0.359   0.352   0.353   0.364   0.353   0.346   0.327   0.343   0.336   0.338   0.346   0.362   0.361   0.350   0.355   0.342   0.347   0.335   0.340   0.338   0.334   0.333   0.336   0.340   0.340   0.333   0.316   0.324   0.327
   154.45    0.332   0.335   0.340   0.336   0.356   0.352   0.348   0.353   0.342   0.354   0.349   0.345   0.338   0.342   0.341   0.332   0.336   0.355   0.358   0.347   0.358   0.361   0.338   0.335   0.337   0.322   0.319   0.324   0.330   0.336   0.337   0.333   0.329   0.318   0.331
   149.80    0.344   0.345   0.351   0.346   0.346   0.356   0.343   0.346   0.355   0.351   0.344   0.330   0.336   0.343   0.347   0.339   0.342   0.347   0.334   0.334   0.345   0.351   0.341   0.335   0.322   0.312   0.306   0.314   0.320   0.327   0.331   0.326   0.310   0.323   0.324
   145.15    0.336   0.343   0.342   0.352   0.350   0.358   0.347   0.349   0.346   0.345   0.343   0.355   0.363   0.359   0.364   0.345   0.338   0.345   0.325   0.336   0.349   0.358   0.335   0.334   0.330   0.333   0.333   0.327   0.334   0.337   0.337   0.325   0.320   0.330   0.331
   140.50    0.330   0.339   0.349   0.351   0.364   0.344   0.361   0.355   0.352   0.358   0.343   0.355   0.360   0.374   0.374   0.349   0.342   0.356   0.340   0.338   0.344   0.341   0.326   0.335   0.336   0.340   0.332   0.323   0.336   0.335   0.339   0.334   0.328   0.329   0.320
   135.85    0.334   0.350   0.364   0.351   0.357   0.346   0.359   0.349   0.352   0.335   0.347   0.360   0.361   0.373   0.363   0.341   0.340   0.341   0.344   0.359   0.334   0.341   0.325   0.330   0.345   0.344   0.341   0.340   0.341   0.336   0.324   0.330   0.331   0.319   0.324
   131.20    0.329   0.354   0.364   0.360   0.356   0.364   0.364   0.364   0.350   0.349   0.341   0.359   0.362   0.364   0.349   0.330   0.339   0.329   0.341   0.348   0.342   0.339   0.338   0.341   0.352   0.343   0.350   0.341   0.340   0.337   0.337   0.319   0.327   0.320   0.326
   126.55    0.340   0.348   0.352   0.367   0.360   0.372   0.377   0.367   0.365   0.364   0.361   0.369   0.378   0.367   0.353   0.345   0.342   0.338   0.339   0.346   0.345   0.331   0.350   0.349   0.339   0.343   0.350   0.337   0.335   0.330   0.341   0.334   0.322   0.324   0.331
   121.90    0.331   0.337   0.348   0.351   0.364   0.364   0.369   0.362   0.363   0.378   0.368   0.366   0.380   0.364   0.364   0.378   0.366   0.349   0.353   0.346   0.342   0.349   0.347   0.347   0.328   0.339   0.358   0.352   0.331   0.330   0.345   0.338   0.343   0.342   0.342
   117.25    0.341   0.339   0.344   0.348   0.351   0.347   0.359   0.354   0.357   0.373   0.387   0.365   0.379   0.379   0.368   0.359   0.355   0.366   0.355   0.359   0.350   0.335   0.338   0.338   0.336   0.344   0.351   0.349   0.350   0.337   0.332   0.338   0.345   0.345   0.332
   112.60    0.357   0.364   0.370   0.358   0.345   0.350   0.350   0.355   0.356   0.353   0.375   0.372   0.368   0.358   0.358   0.341   0.344   0.344   0.351   0.352   0.350   0.348   0.337   0.336   0.336   0.342   0.343   0.340   0.342   0.334   0.328   0.341   0.336   0.342   0.333
   107.95    0.360   0.354   0.359   0.353   0.348   0.348   0.356   0.360   0.364   0.355   0.354   0.356   0.361   0.347   0.356   0.352   0.343   0.343   0.351   0.342   0.347   0.351   0.348   0.340   0.323   0.332   0.332   0.347   0.354   0.349   0.337   0.359   0.343   0.349   0.339
   103.30    0.362   0.359   0.355   0.345   0.341   0.343   0.341   0.358   0.359   0.352   0.339   0.349   0.352   0.356   0.350   0.358   0.353   0.339   0.343   0.332   0.344   0.347   0.346   0.345   0.318   0.320   0.325   0.345   0.351   0.357   0.351   0.360   0.367   0.360   0.348
    98.65    0.346   0.357   0.349   0.354   0.343   0.351   0.343   0.350   0.366   0.353   0.343   0.340   0.344   0.350   0.345   0.357   0.353   0.349   0.337   0.332   0.344   0.351   0.346   0.337   0.332   0.322   0.332   0.338   0.345   0.356   0.351   0.347   0.359   0.357   0.349
    94.00    0.356   0.359   0.346   0.353   0.355   0.349   0.349   0.359   0.362   0.359   0.351   0.344   0.353   0.352   0.345   0.345   0.337   0.349   0.343   0.343   0.350   0.335   0.343   0.351   0.345   0.343   0.330   0.325   0.332   0.348   0.357   0.365   0.365   0.356   0.343
    89.35    0.353   0.358   0.362   0.359   0.350   0.349   0.354   0.361   0.362   0.373   0.362   0.359   0.358   0.347   0.337   0.344   0.353   0.345   0.354   0.342   0.346   0.344   0.340   0.345   0.350   0.358   0.335   0.335   0.339   0.355   0.377   0.364   0.357   0.361   0.364
    84.70    0.361   0.361   0.365   0.361   0.359   0.352   0.356   0.367   0.365   0.370   0.381   0.354   0.348   0.351   0.353   0.348   0.359   0.356   0.340   0.346   0.338   0.341   0.349   0.339   0.352   0.348   0.349   0.339   0.351   0.359   0.361   0.368   0.370   0.353   0.357
    80.05    0.353   0.351   0.350   0.374   0.366   0.353   0.349   0.353   0.363   0.381   0.374   0.366   0.373   0.369   0.367   0.355   0.365   0.344   0.346   0.349   0.349   0.347   0.359   0.380   0.361   0.368   0.356   0.348   0.347   0.358   0.369   0.377   0.372   0.364   0.348
    75.40    0.362   0.372   0.360   0.375   0.367   0.346   0.363   0.357   0.365   0.378   0.387   0.364   0.366   0.362   0.364   0.353   0.340   0.328   0.336   0.356   0.358   0.363   0.371   0.372   0.381   0.359   0.351   0.351   0.356   0.340   0.365   0.372   0.367   0.346   0.350
    70.75    0.366   0.383   0.368   0.378   0.378   0.376   0.372   0.367   0.358   0.369   0.378   0.372   0.376   0.362   0.342   0.343   0.350   0.334   0.351   0.357   0.364   0.367   0.364   0.375   0.357   0.351   0.339   0.349   0.353   0.337   0.337   0.353   0.366   0.364   0.354
    66.10    0.360   0.374   0.393   0.395   0.389   0.392   0.376   0.372   0.398   0.385   0.379   0.395   0.355   0.358   0.358   0.347   0.350   0.342   0.355   0.361   0.356   0.380   0.393   0.370   0.345   0.350   0.358   0.360   0.355   0.337   0.341   0.353   0.361   0.365   0.352
    61.45    0.367   0.368   0.368   0.387   0.398   0.411   0.375   0.395   0.403   0.390   0.389   0.384   0.373   0.354   0.347   0.341   0.356   0.362   0.362   0.364   0.383   0.377   0.373   0.375   0.351   0.356   0.365   0.341   0.350   0.349   0.336   0.358   0.343   0.339   0.359
    56.80    0.389   0.386   0.370   0.386   0.391   0.397   0.384   0.384   0.394   0.397   0.386   0.378   0.386   0.369   0.347   0.332   0.348   0.358   0.376   0.360   0.366   0.375   0.371   0.386   0.365   0.365   0.347   0.343   0.336   0.350   0.350   0.347   0.361   0.363   0.353
    52.15    0.383   0.376   0.382   0.385   0.385   0.381   0.398   0.402   0.393   0.403   0.369   0.365   0.369   0.359   0.355   0.335   0.344   0.345   0.358   0.354   0.363   0.356   0.360   0.372   0.383   0.380   0.344   0.349   0.346   0.347   0.341   0.342   0.352   0.351   0.347
    47.50    0.378   0.368   0.369   0.376   0.374   0.388   0.415   0.388   0.378   0.396   0.390   0.383   0.380   0.345   0.340   0.326   0.328   0.333   0.354   0.356   0.356   0.355   0.348   0.372   0.385   0.372   0.363   0.339   0.338   0.339   0.342   0.344   0.339   0.347   0.341
    42.85    0.369   0.381   0.364   0.368   0.369   0.389   0.399   0.402   0.391   0.377   0.371   0.377   0.378   0.356   0.331   0.328   0.329   0.325   0.341   0.340   0.361   0.366   0.358   0.363   0.359   0.359   0.350   0.349   0.338   0.335   0.333   0.337   0.339   0.345   0.341
    38.20    0.384   0.362   0.373   0.363   0.369   0.383   0.381   0.377   0.382   0.373   0.379   0.386   0.387   0.385   0.366   0.359   0.351   0.351   0.344   0.358   0.371   0.373   0.359   0.361   0.362   0.353   0.343   0.345   0.340   0.344   0.344   0.334   0.342   0.343   0.342
    33.55    0.373   0.383   0.382   0.378   0.371   0.380   0.373   0.376   0.379   0.382   0.375   0.365   0.367   0.368   0.373   0.384   0.366   0.366   0.353   0.370   0.371   0.380   0.357   0.351   0.362   0.359   0.349   0.352   0.355   0.339   0.341   0.339   0.330   0.337   0.333
    28.90    0.380   0.358   0.383   0.380   0.378   0.376   0.383   0.386   0.400   0.365   0.369   0.364   0.360   0.380   0.377   0.397   0.391   0.386   0.386   0.381   0.376   0.396   0.385   0.364   0.367   0.379   0.356   0.362   0.361   0.344   0.348   0.321   0.331   0.328   0.323
    24.25    0.373   0.370   0.369   0.373   0.377   0.389   0.388   0.386   0.388   0.370   0.374   0.370   0.372   0.384   0.400   0.398   0.398   0.385   0.397   0.387   0.395   0.392   0.377   0.376   0.355   0.356   0.370   0.361   0.361   0.349   0.350   0.342   0.339   0.340   0.337
    19.60    0.358   0.354   0.344   0.361   0.368   0.366   0.369   0.379   0.380   0.370   0.361   0.362   0.374   0.372   0.373   0.395   0.404   0.410   0.402   0.401   0.406   0.389   0.373   0.368   0.354   0.362   0.364   0.357   0.372   0.362   0.364   0.346   0.334   0.336   0.339
    14.95    0.363   0.355   0.357   0.360   0.370   0.366   0.358   0.350   0.355   0.351   0.358   0.358   0.384   0.378   0.386   0.385   0.384   0.391   0.389   0.391   0.378   0.367   0.365   0.367   0.355   0.350   0.348   0.375   0.384   0.387   0.377   0.370   0.350   0.338   0.349
    10.30    0.359   0.361   0.352   0.348   0.359   0.356   0.349   0.352   0.344   0.350   0.361   0.363   0.367   0.373   0.388   0.390   0.380   0.379   0.368   0.376   0.385   0.381   0.377   0.383   0.373   0.351   0.358   0.367   0.374   0.372   0.364   0.350   0.346   0.353   0.368
     5.65    0.350   0.353   0.351   0.346   0.351   0.363   0.346   0.343   0.349   0.342   0.357   0.368   0.372   0.367   0.374   0.371   0.379   0.381   0.360   0.356   0.374   0.378   0.385   0.384   0.380   0.376   0.371   0.366   0.367   0.363   0.349   0.354   0.359   0.344   0.359
     1.00    0.354   0.360   0.355   0.344   0.345   0.355   0.341   0.345   0.347   0.360   0.362   0.371   0.358   0.361   0.366   0.378   0.371   0.375   0.368   0.370   0.383   0.393   0.387   0.392   0.382   0.369   0.354   0.369   0.372   0.367   0.361   0.363   0.353   0.372   0.367

   Mean standard deviation across all grid points:
      u component:    0.683 m/s
      v component:    0.621 m/s
      w component:    0.355 m/s


U-component (X) statistics from the interpolated hub point:

   Mean =   9.9913 m/s
   TI   =   7.3387 %


Processing complete.  6304.6 CPU seconds used.
