
This summary file was generated by TurbSim (from OpenFAST-v3.5.3) on 19-Apr-2025 at 22:00:15.


Runtime Options:

1333634118  Random seed #1
    RANLUX  Type of random number generator
         F  Output binary HH turbulence parameters?
         F  Output formatted turbulence parameters?
         F  Output AeroDyn HH files?
         T  Output AeroDyn FF files?
         F  Output BLADED FF files?
         F  Output tower data?
         F  Output HAWC FF files?
         F  Output formatted FF files?
         T  Output coherent turbulence time step file?
 0 -  NONE  IEC turbulence models scaled to exact specified standard deviation


Turbine/Model Specifications:

        39  Vertical grid-point matrix dimension
       193  Horizontal grid-point matrix dimension
     0.250  Time step [seconds]
   900.000  Analysis time [seconds]
   900.000  Usable output time [seconds]
   177.700  Hub height [m]
   353.400  Grid height [m]
  1785.600  Grid width [m]
     0.000  Vertical flow angle [degrees]
     0.000  Horizontal flow angle [degrees]


Meteorological Boundary Conditions:

    IECKAI  IEC Kaimal spectral model
         1  IEC standard: IEC 61400-1 Ed. 3: 2005
     4.000  Percent turbulence intensity, IEC 61400-1 Ed. 3: 2005
       NTM  IEC Normal Turbulence Model
       N/A  IEC Extreme Turbulence Model (ETM) "c" parameter [m/s]
       USR  Wind profile type
    90.000  Reference height [m]
       N/A  Reference wind speed [m/s]
       N/A  Jet height [m]
       N/A  Power law exponent
     0.030  Surface roughness length [m]


Non-IEC Meteorological Boundary Conditions:

       N/A  Site latitude [degrees]
       N/A  Gradient Richardson number
       N/A  Friction or shear velocity [m/s]
       N/A  Mixing layer depth [m]
       N/A  Mean hub u'w' Reynolds stress
       N/A  Mean hub u'v' Reynolds stress
       N/A  Mean hub v'w' Reynolds stress


Spatial Coherence Models:

       IEC  u-component coherence model
       IEC  v-component coherence model
       IEC  w-component coherence model
(   12.000, 0.353E-03)  u-component coherence parameters
(   12.000, 0.353E-03)  v-component coherence parameters
(   12.000, 0.353E-03)  w-component coherence parameters
       N/A  Coherence exponent


User-Defined Profiles:

  Height   Wind Speed   Horizontal Angle
   (m)        (m/s)          (deg)      
  ------   ----------   ----------------
  353.40      10.00         318.19
  334.80      10.00         321.14
  316.20      10.00         324.10
  297.60      10.00         327.05
  279.00      10.00         330.00
  260.40      10.00         332.95
  241.80      10.00         335.90
  223.20      10.00         338.86
  204.60      10.00         341.81
  186.00      10.00         344.76
  167.40      10.00         347.71
  148.80      10.00         350.67
  130.20      10.00         353.62
  111.60      10.00         356.57
   93.00      10.00         359.52
   74.40      10.00           2.48
   55.80      10.00           5.43
   37.20      10.00           8.38
   18.60      10.00          11.33
    0.00      10.00          14.29


You have requested that the following file(s) be generated:

   /kfs3/scratch/agupta/Projects/RL_Incubator/FinalRuns_Veer/Seed4/./FFSim_Seed4/Cond00_v10.0_PL0.12_TI4.0/Seed_4/Low.bts (AeroDyn/TurbSim full-field wind file)


Turbulence Simulation Scaling Parameter Summary:

   Turbulence model used                            =  IEC Kaimal
   Turbulence characteristic                        =  User-specified
   IEC standard                                     =  IEC 61400-1 Ed. 3: 2005
   Mean wind speed at hub height                    =   10.000 m/s
   Characteristic value of standard deviation       =    0.400 m/s
   Turbulence scale                                 =   42.000 m
   u-component integral scale                       =  340.200 m
   Coherency scale                                  =  340.200 m
   Characteristic value of hub turbulence intensity =    4.000%
   Gradient Richardson number                       =    0.000

   Wind profile type                                =  Linear interpolation of user-defined profile
   Equivalent power law exponent (upper rotor disk) =    0.000
   Mean shear across rotor disk                     =    0.000 (m/s)/m
   Assumed rotor diameter                           =  353.400 m
   Surface roughness length                         =    0.030 m

   Nyquist frequency of turbulent wind field        =    2.000 Hz

   Number of time steps in the FFT                  =     3600
   Number of time steps output                      =     3600
   Number of points simulated                       =     7527


Mean Flow Angles:

   Vertical   =   0.0 degrees
   Horizontal =   0.0 degrees

Mean Wind Speed Profile:

   Height    Wind Speed   Horizontal Angle  Vertical Angle  U-comp (X)   V-comp (Y)   W-comp (Z)
     (m)        (m/s)         (degrees)       (degrees)       (m/s)        (m/s)        (m/s)   
   ------    ----------   ----------------  --------------  ----------   ----------   ----------
    354.4       10.00          318.19            0.00          7.45        -6.67         0.00
    345.1       10.00          319.51            0.00          7.60        -6.49         0.00
    335.8       10.00          320.98            0.00          7.77        -6.30         0.00
    326.5       10.00          322.46            0.00          7.93        -6.09         0.00
    317.2       10.00          323.94            0.00          8.08        -5.89         0.00
    307.9       10.00          325.41            0.00          8.23        -5.68         0.00
    298.6       10.00          326.89            0.00          8.38        -5.46         0.00
    289.3       10.00          328.37            0.00          8.51        -5.25         0.00
    280.0       10.00          329.84            0.00          8.65        -5.02         0.00
    270.7       10.00          331.32            0.00          8.77        -4.80         0.00
    261.4       10.00          332.79            0.00          8.89        -4.57         0.00
    252.1       10.00          334.27            0.00          9.01        -4.34         0.00
    242.8       10.00          335.75            0.00          9.12        -4.11         0.00
    233.5       10.00          337.22            0.00          9.22        -3.87         0.00
    224.2       10.00          338.70            0.00          9.32        -3.63         0.00
    214.9       10.00          340.17            0.00          9.41        -3.39         0.00
    205.6       10.00          341.65            0.00          9.49        -3.15         0.00
    196.3       10.00          343.13            0.00          9.57        -2.90         0.00
    187.0       10.00          344.60            0.00          9.64        -2.66         0.00
    177.7       10.00          346.08            0.00          9.71        -2.41         0.00
    168.4       10.00          347.56            0.00          9.77        -2.15         0.00
    159.1       10.00          349.03            0.00          9.82        -1.90         0.00
    149.8       10.00          350.51            0.00          9.86        -1.65         0.00
    140.5       10.00          351.98            0.00          9.90        -1.39         0.00
    131.2       10.00          353.46            0.00          9.93        -1.14         0.00
    121.9       10.00          354.94            0.00          9.96        -0.88         0.00
    112.6       10.00          356.41            0.00          9.98        -0.63         0.00
    103.3       10.00          357.89            0.00          9.99        -0.37         0.00
     94.0       10.00          359.37            0.00         10.00        -0.11         0.00
     84.7       10.00          360.84            0.00         10.00         0.15         0.00
     75.4       10.00          362.32            0.00          9.99         0.40         0.00
     66.1       10.00            3.79            0.00          9.98         0.66         0.00
     56.8       10.00            5.27            0.00          9.96         0.92         0.00
     47.5       10.00            6.75            0.00          9.93         1.17         0.00
     38.2       10.00            8.22            0.00          9.90         1.43         0.00
     28.9       10.00            9.70            0.00          9.86         1.68         0.00
     19.6       10.00           11.17            0.00          9.81         1.94         0.00
     10.3       10.00           12.65            0.00          9.76         2.19         0.00
      1.0       10.00           14.13            0.00          9.70         2.44         0.00


Harvested Random Seeds after Generation of the Random Numbers:

    377667225 K 1
            0 K 2


Hub-Height Simulated Turbulence Statistical Summary:

   Type of Wind        Min (m/s)   Mean (m/s)    Max (m/s)  Sigma (m/s)       TI (%)
   ----------------    ---------   ----------    ---------  -----------       ------
   Longitudinal (u)         8.75        10.00        11.17        0.404        4.036
   Lateral (v)             -0.81         0.00         0.82        0.287        2.868
   Vertical (w)            -0.74         0.00         0.66        0.196        1.955
   U component              8.39         9.71        10.95        0.405        4.171
   V component             -3.22        -2.41        -1.49        0.285        2.936
   W component             -0.74         0.00         0.66        0.196        2.014
   Horizontal (U&V)         8.76        10.00        11.18        0.403        4.033
   Total                    8.76        10.01        11.18        0.403        4.031

                       Min Reynolds     Mean Reynolds    Max Reynolds    Correlation
   Product             Stress (m/s)^2   Stress (m/s)^2   Stress (m/s)^2  Coefficient
   ----------------    --------------   --------------   --------------  -----------
   u'w'                     -0.345            -0.001             0.443        -0.016
   u'v'                     -0.535             0.012             0.714         0.106
   v'w'                     -0.313             0.002             0.277         0.030


   Friction Velocity (Ustar)  =      0.035 m/s
   Maximum Instantaneous TKE  =      0.929 (m/s)^2
   Maximum Instantaneous CTKE =      0.370 (m/s)^2


Grid Point Variance Summary:

   Y-coord -892.80 -883.50 -874.20 -864.90 -855.60 -846.30 -837.00 -827.70 -818.40 -809.10 -799.80 -790.50 -781.20 -771.90 -762.60 -753.30 -744.00 -734.70 -725.40 -716.10 -706.80 -697.50 -688.20 -678.90 -669.60 -660.30 -651.00 -641.70 -632.40 -623.10 -613.80 -604.50 -595.20 -585.90 -576.60 -567.30 -558.00 -548.70 -539.40 -530.10 -520.80 -511.50 -502.20 -492.90 -483.60 -474.30 -465.00 -455.70 -446.40 -437.10 -427.80 -418.50 -409.20 -399.90 -390.60 -381.30 -372.00 -362.70 -353.40 -344.10 -334.80 -325.50 -316.20 -306.90 -297.60 -288.30 -279.00 -269.70 -260.40 -251.10 -241.80 -232.50 -223.20 -213.90 -204.60 -195.30 -186.00 -176.70 -167.40 -158.10 -148.80 -139.50 -130.20 -120.90 -111.60 -102.30  -93.00  -83.70  -74.40  -65.10  -55.80  -46.50  -37.20  -27.90  -18.60   -9.30    0.00    9.30   18.60   27.90   37.20   46.50   55.80   65.10   74.40   83.70   93.00  102.30  111.60  120.90  130.20  139.50  148.80  158.10  167.40  176.70  186.00  195.30  204.60  213.90  223.20  232.50  241.80  251.10  260.40  269.70  279.00  288.30  297.60  306.90  316.20  325.50  334.80  344.10  353.40  362.70  372.00  381.30  390.60  399.90  409.20  418.50  427.80  437.10  446.40  455.70  465.00  474.30  483.60  492.90  502.20  511.50  520.80  530.10  539.40  548.70  558.00  567.30  576.60  585.90  595.20  604.50  613.80  623.10  632.40  641.70  651.00  660.30  669.60  678.90  688.20  697.50  706.80  716.10  725.40  734.70  744.00  753.30  762.60  771.90  781.20  790.50  799.80  809.10  818.40  827.70  837.00  846.30  855.60  864.90  874.20  883.50  892.80

   Height   Standard deviation at grid points for the u component:
   354.40    0.335   0.359   0.375   0.397   0.404   0.417   0.408   0.389   0.371   0.375   0.391   0.383   0.365   0.388   0.354   0.368   0.330   0.323   0.313   0.303   0.302   0.299   0.317   0.322   0.324   0.330   0.335   0.337   0.333   0.362   0.337   0.354   0.356   0.362   0.341   0.359   0.352   0.376   0.407   0.415   0.383   0.367   0.381   0.353   0.362   0.351   0.336   0.345   0.337   0.337   0.347   0.343   0.338   0.373   0.373   0.386   0.372   0.351   0.354   0.328   0.322   0.330   0.332   0.359   0.348   0.350   0.361   0.352   0.349   0.338   0.367   0.355   0.328   0.353   0.352   0.346   0.370   0.398   0.413   0.390   0.387   0.386   0.385   0.386   0.387   0.395   0.387   0.392   0.371   0.399   0.394   0.420   0.414   0.443   0.424   0.412   0.402   0.378   0.387   0.410   0.387   0.358   0.383   0.372   0.361   0.367   0.354   0.360   0.372   0.382   0.379   0.388   0.394   0.393   0.412   0.402   0.398   0.383   0.377   0.370   0.366   0.369   0.389   0.355   0.349   0.364   0.361   0.366   0.385   0.360   0.369   0.398   0.426   0.408   0.411   0.415   0.429   0.409   0.404   0.394   0.395   0.400   0.379   0.403   0.379   0.402   0.387   0.394   0.407   0.404   0.408   0.410   0.402   0.392   0.391   0.399   0.412   0.396   0.366   0.359   0.359   0.372   0.358   0.332   0.322   0.349   0.374   0.370   0.353   0.325   0.361   0.356   0.345   0.369   0.352   0.356   0.335   0.357   0.364   0.341   0.336   0.340   0.343   0.381   0.366   0.374   0.365   0.356   0.388   0.393   0.390   0.402   0.388
   345.10    0.362   0.357   0.354   0.381   0.417   0.422   0.396   0.374   0.392   0.391   0.372   0.375   0.394   0.394   0.375   0.369   0.346   0.328   0.312   0.314   0.326   0.296   0.316   0.315   0.320   0.313   0.329   0.334   0.361   0.347   0.357   0.371   0.340   0.360   0.370   0.378   0.376   0.421   0.419   0.401   0.385   0.355   0.354   0.363   0.335   0.350   0.362   0.338   0.326   0.343   0.326   0.329   0.343   0.367   0.385   0.391   0.375   0.363   0.376   0.346   0.319   0.332   0.333   0.358   0.346   0.349   0.347   0.340   0.346   0.360   0.348   0.328   0.329   0.346   0.355   0.330   0.323   0.381   0.412   0.391   0.378   0.398   0.415   0.436   0.369   0.374   0.403   0.393   0.402   0.413   0.398   0.412   0.403   0.399   0.418   0.420   0.406   0.402   0.380   0.407   0.393   0.358   0.342   0.358   0.374   0.346   0.351   0.375   0.374   0.357   0.357   0.361   0.369   0.374   0.384   0.377   0.377   0.369   0.401   0.382   0.369   0.365   0.372   0.380   0.352   0.329   0.363   0.386   0.380   0.377   0.376   0.380   0.393   0.414   0.405   0.406   0.401   0.398   0.393   0.386   0.390   0.414   0.437   0.432   0.421   0.406   0.409   0.403   0.410   0.410   0.386   0.395   0.363   0.378   0.360   0.369   0.388   0.377   0.373   0.350   0.356   0.379   0.349   0.359   0.323   0.349   0.381   0.369   0.357   0.343   0.344   0.356   0.359   0.355   0.350   0.337   0.342   0.347   0.321   0.320   0.320   0.314   0.334   0.357   0.351   0.363   0.364   0.367   0.373   0.420   0.402   0.396   0.390
   335.80    0.396   0.381   0.383   0.414   0.449   0.440   0.427   0.406   0.409   0.395   0.373   0.383   0.375   0.374   0.380   0.373   0.373   0.351   0.322   0.306   0.335   0.306   0.324   0.294   0.315   0.312   0.309   0.334   0.354   0.345   0.345   0.370   0.366   0.375   0.380   0.401   0.415   0.417   0.410   0.394   0.395   0.371   0.367   0.369   0.349   0.362   0.351   0.370   0.356   0.337   0.337   0.331   0.344   0.367   0.367   0.375   0.400   0.393   0.382   0.372   0.353   0.343   0.350   0.364   0.371   0.361   0.353   0.347   0.342   0.358   0.339   0.333   0.330   0.339   0.363   0.365   0.346   0.370   0.388   0.368   0.369   0.398   0.413   0.408   0.388   0.384   0.384   0.372   0.372   0.376   0.402   0.416   0.396   0.378   0.398   0.407   0.410   0.409   0.389   0.406   0.401   0.370   0.359   0.321   0.354   0.367   0.368   0.368   0.360   0.372   0.357   0.360   0.378   0.383   0.380   0.380   0.394   0.393   0.382   0.386   0.343   0.355   0.351   0.362   0.347   0.326   0.371   0.367   0.366   0.381   0.383   0.402   0.388   0.391   0.388   0.401   0.403   0.394   0.397   0.398   0.371   0.406   0.428   0.397   0.421   0.426   0.437   0.419   0.380   0.373   0.395   0.399   0.378   0.367   0.355   0.385   0.388   0.384   0.361   0.376   0.375   0.384   0.379   0.371   0.341   0.352   0.363   0.336   0.322   0.360   0.373   0.367   0.373   0.341   0.357   0.360   0.352   0.325   0.325   0.304   0.323   0.315   0.319   0.342   0.348   0.384   0.348   0.365   0.378   0.402   0.375   0.390   0.402
   326.50    0.413   0.394   0.388   0.429   0.439   0.432   0.462   0.436   0.426   0.424   0.413   0.362   0.373   0.366   0.391   0.393   0.363   0.353   0.330   0.315   0.328   0.319   0.344   0.329   0.319   0.311   0.345   0.349   0.348   0.329   0.327   0.367   0.396   0.380   0.401   0.409   0.420   0.408   0.382   0.404   0.371   0.352   0.363   0.355   0.349   0.341   0.378   0.360   0.350   0.362   0.358   0.341   0.357   0.353   0.382   0.394   0.417   0.408   0.421   0.384   0.384   0.357   0.365   0.361   0.386   0.381   0.376   0.355   0.360   0.372   0.352   0.353   0.333   0.323   0.363   0.365   0.341   0.344   0.352   0.365   0.369   0.351   0.376   0.377   0.369   0.362   0.341   0.364   0.378   0.386   0.373   0.395   0.383   0.375   0.383   0.375   0.391   0.380   0.407   0.420   0.428   0.376   0.366   0.344   0.351   0.364   0.380   0.376   0.380   0.361   0.346   0.352   0.365   0.375   0.346   0.372   0.368   0.396   0.383   0.399   0.365   0.350   0.337   0.344   0.341   0.365   0.362   0.378   0.409   0.409   0.406   0.395   0.420   0.400   0.395   0.400   0.400   0.394   0.404   0.382   0.419   0.404   0.424   0.423   0.405   0.423   0.402   0.413   0.403   0.384   0.394   0.398   0.395   0.369   0.370   0.373   0.378   0.370   0.348   0.365   0.369   0.366   0.383   0.374   0.356   0.348   0.339   0.307   0.307   0.339   0.376   0.376   0.351   0.374   0.381   0.373   0.375   0.344   0.328   0.326   0.322   0.336   0.361   0.334   0.324   0.360   0.370   0.357   0.388   0.399   0.372   0.391   0.415
   317.20    0.414   0.416   0.417   0.417   0.416   0.410   0.439   0.428   0.399   0.424   0.391   0.372   0.373   0.362   0.396   0.373   0.342   0.340   0.339   0.329   0.338   0.344   0.346   0.336   0.353   0.330   0.351   0.338   0.351   0.339   0.348   0.396   0.414   0.393   0.386   0.395   0.398   0.403   0.368   0.391   0.400   0.363   0.363   0.372   0.353   0.367   0.370   0.378   0.374   0.385   0.378   0.380   0.360   0.376   0.411   0.389   0.401   0.429   0.422   0.403   0.418   0.368   0.360   0.383   0.393   0.408   0.373   0.386   0.368   0.340   0.358   0.372   0.343   0.340   0.367   0.346   0.362   0.346   0.330   0.342   0.352   0.358   0.339   0.367   0.365   0.354   0.347   0.354   0.373   0.344   0.353   0.373   0.381   0.341   0.349   0.378   0.388   0.398   0.397   0.435   0.409   0.404   0.385   0.377   0.365   0.375   0.402   0.369   0.371   0.351   0.347   0.348   0.371   0.390   0.370   0.377   0.387   0.389   0.378   0.390   0.397   0.383   0.332   0.340   0.331   0.354   0.343   0.387   0.394   0.400   0.393   0.395   0.397   0.364   0.385   0.407   0.408   0.398   0.381   0.375   0.377   0.393   0.388   0.383   0.391   0.379   0.412   0.385   0.404   0.404   0.401   0.421   0.423   0.390   0.386   0.400   0.362   0.391   0.353   0.384   0.362   0.388   0.373   0.362   0.335   0.328   0.332   0.337   0.303   0.327   0.355   0.370   0.363   0.360   0.401   0.392   0.399   0.365   0.360   0.331   0.323   0.359   0.360   0.342   0.353   0.360   0.365   0.392   0.389   0.410   0.400   0.412   0.406
   307.90    0.384   0.422   0.392   0.396   0.393   0.406   0.409   0.415   0.389   0.401   0.385   0.395   0.369   0.366   0.362   0.364   0.343   0.332   0.329   0.347   0.338   0.337   0.334   0.329   0.334   0.332   0.367   0.381   0.352   0.349   0.352   0.361   0.395   0.396   0.393   0.407   0.403   0.380   0.358   0.396   0.403   0.370   0.372   0.356   0.374   0.377   0.358   0.367   0.371   0.368   0.381   0.398   0.390   0.389   0.410   0.395   0.381   0.412   0.407   0.401   0.413   0.376   0.397   0.396   0.379   0.395   0.402   0.397   0.354   0.344   0.343   0.345   0.347   0.325   0.331   0.315   0.349   0.373   0.353   0.349   0.360   0.373   0.338   0.346   0.347   0.373   0.353   0.373   0.352   0.363   0.371   0.376   0.353   0.368   0.375   0.395   0.359   0.389   0.399   0.414   0.398   0.408   0.400   0.384   0.403   0.397   0.419   0.383   0.360   0.367   0.356   0.356   0.400   0.388   0.397   0.423   0.397   0.397   0.386   0.396   0.413   0.367   0.360   0.352   0.333   0.344   0.356   0.369   0.397   0.384   0.395   0.404   0.391   0.368   0.383   0.415   0.416   0.398   0.370   0.356   0.367   0.370   0.350   0.371   0.389   0.380   0.391   0.401   0.383   0.376   0.389   0.403   0.436   0.413   0.422   0.436   0.406   0.373   0.386   0.398   0.383   0.399   0.364   0.351   0.365   0.352   0.333   0.323   0.331   0.317   0.313   0.362   0.384   0.368   0.383   0.384   0.381   0.357   0.385   0.366   0.360   0.352   0.345   0.362   0.376   0.371   0.365   0.372   0.386   0.388   0.384   0.388   0.424
   298.60    0.387   0.381   0.425   0.403   0.427   0.421   0.431   0.414   0.416   0.421   0.410   0.396   0.378   0.397   0.360   0.366   0.360   0.345   0.359   0.345   0.336   0.315   0.320   0.309   0.333   0.330   0.356   0.359   0.355   0.331   0.349   0.378   0.384   0.392   0.362   0.411   0.426   0.382   0.360   0.369   0.387   0.372   0.364   0.360   0.374   0.392   0.380   0.376   0.366   0.366   0.371   0.372   0.361   0.402   0.388   0.396   0.387   0.397   0.374   0.380   0.396   0.386   0.391   0.376   0.359   0.386   0.388   0.397   0.341   0.328   0.331   0.326   0.345   0.333   0.347   0.323   0.346   0.341   0.335   0.333   0.355   0.391   0.328   0.325   0.342   0.362   0.336   0.347   0.343   0.345   0.349   0.351   0.355   0.363   0.365   0.372   0.382   0.404   0.382   0.415   0.385   0.407   0.410   0.386   0.385   0.364   0.384   0.380   0.360   0.369   0.365   0.408   0.410   0.410   0.401   0.415   0.424   0.378   0.380   0.377   0.394   0.404   0.350   0.347   0.366   0.339   0.358   0.384   0.373   0.369   0.366   0.402   0.401   0.380   0.381   0.412   0.431   0.413   0.363   0.393   0.400   0.382   0.345   0.386   0.398   0.405   0.398   0.399   0.366   0.364   0.365   0.388   0.404   0.418   0.436   0.436   0.421   0.432   0.421   0.414   0.416   0.396   0.372   0.376   0.362   0.363   0.372   0.365   0.350   0.299   0.316   0.338   0.364   0.361   0.368   0.376   0.378   0.388   0.402   0.380   0.362   0.350   0.366   0.378   0.373   0.371   0.352   0.392   0.362   0.351   0.369   0.381   0.404
   289.30    0.389   0.408   0.432   0.447   0.418   0.425   0.414   0.398   0.422   0.419   0.386   0.366   0.338   0.390   0.350   0.366   0.353   0.339   0.345   0.346   0.346   0.328   0.327   0.310   0.309   0.334   0.342   0.369   0.355   0.346   0.369   0.388   0.375   0.392   0.388   0.423   0.430   0.383   0.361   0.374   0.371   0.363   0.361   0.362   0.373   0.383   0.377   0.381   0.385   0.362   0.373   0.371   0.387   0.407   0.398   0.399   0.373   0.381   0.356   0.363   0.377   0.396   0.373   0.400   0.379   0.388   0.380   0.368   0.347   0.319   0.330   0.340   0.345   0.333   0.351   0.356   0.344   0.330   0.344   0.365   0.368   0.398   0.378   0.358   0.345   0.342   0.335   0.338   0.357   0.351   0.359   0.363   0.338   0.368   0.340   0.373   0.376   0.388   0.399   0.388   0.394   0.386   0.389   0.383   0.386   0.356   0.357   0.354   0.378   0.379   0.359   0.390   0.419   0.414   0.405   0.418   0.405   0.396   0.357   0.359   0.364   0.376   0.373   0.350   0.341   0.338   0.350   0.388   0.373   0.363   0.378   0.398   0.373   0.397   0.398   0.399   0.422   0.382   0.369   0.378   0.360   0.358   0.360   0.354   0.370   0.404   0.372   0.382   0.382   0.379   0.367   0.397   0.392   0.402   0.436   0.396   0.410   0.434   0.420   0.423   0.399   0.393   0.371   0.343   0.344   0.364   0.382   0.377   0.363   0.336   0.313   0.325   0.338   0.361   0.354   0.367   0.387   0.401   0.419   0.390   0.366   0.363   0.384   0.386   0.371   0.369   0.379   0.385   0.377   0.356   0.358   0.368   0.400
   280.00    0.418   0.437   0.431   0.429   0.420   0.424   0.391   0.393   0.388   0.383   0.357   0.377   0.378   0.390   0.390   0.383   0.373   0.351   0.351   0.333   0.336   0.317   0.299   0.298   0.327   0.360   0.364   0.351   0.344   0.350   0.347   0.364   0.378   0.389   0.396   0.416   0.412   0.398   0.340   0.345   0.364   0.351   0.334   0.323   0.349   0.356   0.345   0.375   0.382   0.368   0.362   0.368   0.380   0.384   0.407   0.424   0.392   0.368   0.338   0.369   0.387   0.376   0.407   0.389   0.402   0.412   0.403   0.374   0.351   0.348   0.343   0.351   0.348   0.318   0.348   0.340   0.338   0.343   0.343   0.363   0.390   0.398   0.382   0.389   0.369   0.359   0.358   0.342   0.344   0.333   0.329   0.348   0.334   0.345   0.357   0.377   0.396   0.398   0.371   0.377   0.346   0.386   0.367   0.376   0.370   0.355   0.353   0.356   0.372   0.397   0.394   0.419   0.439   0.409   0.410   0.400   0.396   0.405   0.347   0.366   0.374   0.332   0.365   0.372   0.354   0.344   0.385   0.400   0.377   0.362   0.402   0.385   0.377   0.383   0.398   0.395   0.380   0.380   0.371   0.373   0.392   0.367   0.340   0.341   0.354   0.384   0.406   0.389   0.380   0.379   0.363   0.386   0.383   0.388   0.404   0.388   0.410   0.406   0.402   0.406   0.404   0.410   0.389   0.362   0.344   0.369   0.382   0.354   0.348   0.346   0.340   0.342   0.344   0.342   0.365   0.415   0.433   0.440   0.418   0.412   0.389   0.352   0.382   0.395   0.387   0.363   0.361   0.390   0.373   0.380   0.375   0.393   0.395
   270.70    0.405   0.427   0.416   0.427   0.422   0.398   0.396   0.361   0.371   0.374   0.367   0.374   0.376   0.372   0.383   0.378   0.365   0.343   0.338   0.335   0.332   0.330   0.315   0.312   0.327   0.350   0.348   0.341   0.344   0.349   0.353   0.352   0.352   0.376   0.401   0.422   0.385   0.380   0.374   0.349   0.343   0.347   0.350   0.364   0.370   0.366   0.339   0.357   0.376   0.369   0.357   0.359   0.353   0.357   0.380   0.383   0.392   0.373   0.356   0.353   0.372   0.378   0.378   0.399   0.389   0.397   0.406   0.394   0.370   0.365   0.357   0.340   0.346   0.353   0.338   0.335   0.331   0.335   0.358   0.373   0.389   0.396   0.384   0.365   0.362   0.331   0.333   0.364   0.350   0.327   0.320   0.320   0.317   0.339   0.336   0.344   0.357   0.346   0.366   0.355   0.359   0.358   0.371   0.383   0.378   0.385   0.390   0.380   0.375   0.393   0.392   0.380   0.428   0.444   0.396   0.404   0.397   0.403   0.359   0.387   0.341   0.351   0.338   0.372   0.388   0.382   0.370   0.374   0.396   0.401   0.401   0.379   0.387   0.378   0.385   0.406   0.380   0.367   0.340   0.348   0.366   0.348   0.331   0.335   0.360   0.380   0.368   0.371   0.360   0.345   0.364   0.374   0.375   0.377   0.358   0.375   0.412   0.408   0.402   0.421   0.409   0.391   0.401   0.382   0.352   0.363   0.364   0.362   0.341   0.336   0.332   0.323   0.356   0.364   0.386   0.397   0.439   0.451   0.436   0.387   0.376   0.387   0.391   0.399   0.365   0.386   0.373   0.378   0.391   0.389   0.397   0.406   0.395
   261.40    0.403   0.407   0.398   0.395   0.424   0.413   0.404   0.398   0.371   0.363   0.373   0.382   0.357   0.370   0.367   0.354   0.363   0.335   0.347   0.344   0.332   0.305   0.321   0.344   0.351   0.343   0.370   0.347   0.366   0.351   0.341   0.347   0.375   0.357   0.387   0.407   0.399   0.356   0.362   0.348   0.341   0.327   0.339   0.370   0.356   0.351   0.365   0.342   0.348   0.336   0.390   0.376   0.360   0.377   0.376   0.365   0.363   0.365   0.345   0.320   0.341   0.367   0.377   0.373   0.381   0.374   0.355   0.344   0.361   0.367   0.375   0.347   0.373   0.330   0.340   0.329   0.341   0.330   0.375   0.367   0.395   0.426   0.394   0.381   0.375   0.370   0.343   0.329   0.334   0.328   0.337   0.308   0.318   0.314   0.330   0.341   0.370   0.324   0.354   0.377   0.368   0.378   0.365   0.373   0.370   0.383   0.406   0.388   0.382   0.378   0.374   0.391   0.407   0.428   0.402   0.413   0.411   0.407   0.382   0.410   0.367   0.353   0.369   0.364   0.379   0.366   0.375   0.380   0.402   0.405   0.383   0.395   0.380   0.400   0.387   0.406   0.363   0.376   0.376   0.379   0.359   0.377   0.338   0.363   0.370   0.373   0.373   0.372   0.379   0.364   0.369   0.360   0.360   0.359   0.365   0.397   0.414   0.408   0.395   0.401   0.382   0.371   0.374   0.394   0.346   0.334   0.363   0.330   0.339   0.333   0.359   0.368   0.375   0.391   0.401   0.410   0.423   0.436   0.424   0.401   0.403   0.402   0.394   0.392   0.357   0.360   0.362   0.357   0.349   0.370   0.375   0.398   0.392
   252.10    0.382   0.398   0.391   0.363   0.410   0.400   0.420   0.415   0.379   0.357   0.375   0.381   0.378   0.355   0.352   0.343   0.360   0.327   0.352   0.321   0.315   0.318   0.328   0.342   0.346   0.333   0.331   0.346   0.342   0.354   0.354   0.325   0.349   0.367   0.392   0.401   0.399   0.373   0.365   0.378   0.364   0.330   0.351   0.372   0.365   0.380   0.383   0.376   0.364   0.342   0.354   0.347   0.363   0.368   0.392   0.395   0.378   0.371   0.345   0.337   0.341   0.361   0.367   0.374   0.363   0.359   0.340   0.338   0.339   0.330   0.370   0.368   0.354   0.343   0.332   0.350   0.364   0.371   0.375   0.389   0.426   0.404   0.402   0.362   0.378   0.379   0.361   0.347   0.306   0.321   0.321   0.312   0.327   0.326   0.308   0.333   0.348   0.359   0.377   0.380   0.397   0.374   0.389   0.369   0.386   0.391   0.423   0.402   0.402   0.386   0.388   0.395   0.416   0.406   0.393   0.393   0.416   0.416   0.383   0.380   0.386   0.365   0.363   0.401   0.414   0.378   0.390   0.389   0.373   0.389   0.396   0.392   0.378   0.366   0.386   0.383   0.392   0.372   0.388   0.360   0.349   0.371   0.370   0.392   0.372   0.363   0.397   0.403   0.395   0.397   0.401   0.382   0.359   0.361   0.356   0.390   0.416   0.408   0.375   0.395   0.359   0.331   0.351   0.391   0.370   0.339   0.364   0.360   0.359   0.344   0.362   0.396   0.402   0.390   0.411   0.385   0.404   0.429   0.408   0.427   0.412   0.384   0.394   0.384   0.371   0.362   0.370   0.341   0.364   0.367   0.360   0.371   0.389
   242.80    0.379   0.383   0.371   0.377   0.398   0.406   0.413   0.381   0.366   0.358   0.359   0.374   0.364   0.371   0.343   0.352   0.341   0.295   0.324   0.331   0.320   0.311   0.304   0.321   0.346   0.353   0.334   0.342   0.344   0.361   0.356   0.358   0.355   0.369   0.373   0.402   0.404   0.397   0.360   0.388   0.376   0.343   0.328   0.327   0.345   0.360   0.391   0.383   0.353   0.343   0.332   0.330   0.327   0.357   0.352   0.370   0.350   0.346   0.344   0.334   0.331   0.343   0.362   0.360   0.351   0.354   0.357   0.331   0.369   0.377   0.375   0.358   0.375   0.364   0.369   0.337   0.351   0.368   0.369   0.407   0.431   0.404   0.392   0.392   0.368   0.376   0.361   0.334   0.324   0.312   0.317   0.337   0.337   0.345   0.331   0.362   0.363   0.354   0.359   0.384   0.417   0.396   0.383   0.442   0.399   0.423   0.411   0.450   0.424   0.396   0.424   0.398   0.389   0.402   0.390   0.394   0.396   0.404   0.394   0.393   0.398   0.376   0.388   0.390   0.408   0.360   0.360   0.385   0.373   0.366   0.380   0.371   0.381   0.377   0.375   0.395   0.391   0.374   0.376   0.381   0.393   0.393   0.374   0.378   0.400   0.398   0.418   0.382   0.388   0.427   0.412   0.414   0.387   0.354   0.354   0.358   0.396   0.426   0.410   0.383   0.356   0.375   0.375   0.379   0.358   0.359   0.372   0.370   0.382   0.366   0.394   0.372   0.398   0.400   0.402   0.402   0.425   0.459   0.415   0.427   0.407   0.389   0.420   0.387   0.407   0.400   0.390   0.396   0.374   0.376   0.379   0.382   0.367
   233.50    0.355   0.377   0.389   0.392   0.411   0.402   0.366   0.364   0.346   0.336   0.326   0.358   0.352   0.360   0.347   0.345   0.317   0.322   0.320   0.348   0.359   0.335   0.301   0.306   0.315   0.338   0.333   0.355   0.343   0.347   0.381   0.375   0.390   0.376   0.393   0.419   0.420   0.395   0.376   0.368   0.381   0.358   0.343   0.331   0.350   0.370   0.371   0.366   0.335   0.298   0.292   0.320   0.315   0.353   0.353   0.362   0.348   0.350   0.342   0.363   0.349   0.350   0.344   0.360   0.368   0.374   0.364   0.365   0.363   0.365   0.366   0.388   0.380   0.389   0.367   0.354   0.346   0.318   0.352   0.387   0.416   0.407   0.399   0.369   0.355   0.353   0.358   0.351   0.349   0.381   0.374   0.336   0.330   0.378   0.364   0.375   0.369   0.343   0.370   0.393   0.428   0.415   0.412   0.420   0.416   0.418   0.413   0.414   0.427   0.422   0.421   0.385   0.402   0.405   0.376   0.398   0.394   0.389   0.382   0.378   0.368   0.350   0.360   0.367   0.392   0.377   0.368   0.387   0.362   0.367   0.370   0.391   0.381   0.370   0.364   0.364   0.361   0.381   0.402   0.383   0.386   0.411   0.377   0.415   0.422   0.399   0.405   0.383   0.409   0.415   0.396   0.397   0.387   0.394   0.376   0.377   0.401   0.410   0.410   0.379   0.391   0.364   0.372   0.369   0.365   0.364   0.362   0.341   0.369   0.386   0.394   0.383   0.375   0.383   0.413   0.428   0.442   0.448   0.450   0.422   0.433   0.401   0.405   0.393   0.391   0.401   0.404   0.391   0.384   0.397   0.407   0.387   0.373
   224.20    0.362   0.406   0.403   0.435   0.394   0.401   0.381   0.360   0.331   0.333   0.353   0.334   0.353   0.348   0.336   0.333   0.329   0.311   0.328   0.340   0.320   0.344   0.308   0.291   0.298   0.310   0.319   0.353   0.356   0.365   0.361   0.357   0.358   0.356   0.410   0.419   0.428   0.392   0.372   0.395   0.360   0.359   0.350   0.360   0.347   0.334   0.374   0.347   0.323   0.313   0.329   0.315   0.329   0.330   0.341   0.341   0.347   0.342   0.364   0.376   0.337   0.357   0.371   0.356   0.363   0.361   0.366   0.352   0.364   0.390   0.381   0.372   0.391   0.399   0.383   0.364   0.347   0.325   0.350   0.374   0.386   0.411   0.382   0.364   0.379   0.367   0.364   0.351   0.366   0.372   0.368   0.344   0.342   0.338   0.378   0.374   0.378   0.361   0.400   0.418   0.423   0.450   0.448   0.414   0.440   0.427   0.421   0.400   0.419   0.406   0.411   0.420   0.402   0.400   0.390   0.379   0.379   0.380   0.367   0.402   0.392   0.397   0.387   0.400   0.389   0.411   0.409   0.390   0.378   0.367   0.378   0.396   0.381   0.374   0.366   0.372   0.365   0.369   0.412   0.404   0.403   0.406   0.415   0.410   0.409   0.383   0.374   0.344   0.365   0.387   0.401   0.376   0.399   0.408   0.392   0.380   0.383   0.398   0.397   0.416   0.406   0.391   0.386   0.334   0.349   0.363   0.373   0.340   0.341   0.352   0.391   0.401   0.376   0.379   0.394   0.396   0.417   0.439   0.444   0.432   0.386   0.378   0.371   0.391   0.407   0.405   0.396   0.389   0.391   0.388   0.395   0.377   0.329
   214.90    0.394   0.419   0.438   0.423   0.397   0.377   0.384   0.362   0.360   0.344   0.354   0.338   0.328   0.357   0.332   0.363   0.364   0.322   0.341   0.341   0.330   0.325   0.304   0.307   0.299   0.310   0.318   0.371   0.365   0.359   0.384   0.364   0.343   0.357   0.388   0.379   0.403   0.413   0.414   0.394   0.403   0.367   0.359   0.353   0.370   0.341   0.333   0.340   0.322   0.318   0.303   0.323   0.332   0.339   0.339   0.357   0.342   0.354   0.355   0.348   0.371   0.364   0.371   0.344   0.343   0.356   0.361   0.347   0.359   0.397   0.413   0.424   0.386   0.383   0.375   0.350   0.357   0.366   0.338   0.338   0.358   0.368   0.361   0.349   0.337   0.352   0.355   0.370   0.372   0.373   0.330   0.339   0.338   0.339   0.376   0.365   0.378   0.383   0.407   0.414   0.404   0.437   0.426   0.417   0.420   0.429   0.441   0.443   0.396   0.413   0.403   0.405   0.405   0.380   0.392   0.347   0.374   0.372   0.401   0.402   0.392   0.380   0.390   0.405   0.395   0.393   0.396   0.394   0.367   0.389   0.362   0.382   0.381   0.391   0.388   0.398   0.361   0.378   0.415   0.384   0.387   0.395   0.410   0.406   0.392   0.347   0.355   0.361   0.378   0.392   0.393   0.357   0.385   0.394   0.407   0.397   0.395   0.403   0.405   0.411   0.391   0.378   0.368   0.377   0.341   0.352   0.355   0.358   0.373   0.367   0.395   0.396   0.401   0.401   0.397   0.364   0.404   0.419   0.435   0.436   0.394   0.374   0.380   0.401   0.401   0.406   0.398   0.375   0.394   0.393   0.404   0.371   0.347
   205.60    0.412   0.447   0.417   0.407   0.368   0.360   0.361   0.356   0.384   0.364   0.363   0.367   0.349   0.336   0.321   0.356   0.334   0.350   0.351   0.304   0.320   0.315   0.302   0.302   0.295   0.294   0.347   0.375   0.406   0.420   0.397   0.375   0.358   0.377   0.391   0.374   0.376   0.398   0.383   0.379   0.401   0.397   0.348   0.363   0.365   0.320   0.329   0.333   0.309   0.301   0.304   0.307   0.342   0.350   0.361   0.356   0.357   0.360   0.356   0.340   0.345   0.357   0.346   0.355   0.394   0.365   0.372   0.373   0.382   0.414   0.416   0.426   0.408   0.403   0.390   0.381   0.373   0.350   0.352   0.344   0.361   0.365   0.343   0.334   0.351   0.342   0.356   0.358   0.343   0.343   0.347   0.333   0.367   0.362   0.366   0.352   0.401   0.388   0.412   0.428   0.397   0.412   0.419   0.399   0.407   0.431   0.457   0.468   0.457   0.448   0.461   0.441   0.394   0.393   0.350   0.374   0.386   0.388   0.393   0.409   0.401   0.414   0.420   0.422   0.432   0.419   0.402   0.398   0.398   0.406   0.397   0.398   0.381   0.384   0.387   0.387   0.377   0.351   0.391   0.384   0.384   0.389   0.401   0.356   0.357   0.328   0.324   0.328   0.352   0.398   0.409   0.373   0.387   0.421   0.419   0.436   0.437   0.438   0.415   0.408   0.385   0.377   0.377   0.355   0.334   0.351   0.346   0.354   0.354   0.356   0.387   0.400   0.408   0.427   0.404   0.382   0.402   0.407   0.413   0.424   0.421   0.377   0.407   0.396   0.376   0.371   0.390   0.378   0.380   0.389   0.386   0.376   0.349
   196.30    0.447   0.417   0.395   0.381   0.380   0.366   0.381   0.374   0.397   0.389   0.361   0.340   0.363   0.348   0.334   0.364   0.350   0.347   0.336   0.327   0.352   0.320   0.322   0.324   0.309   0.325   0.357   0.365   0.391   0.384   0.376   0.362   0.373   0.378   0.373   0.408   0.374   0.370   0.411   0.381   0.400   0.403   0.381   0.366   0.330   0.334   0.345   0.316   0.318   0.327   0.319   0.330   0.343   0.352   0.359   0.357   0.364   0.365   0.363   0.365   0.351   0.343   0.344   0.358   0.369   0.405   0.387   0.378   0.382   0.411   0.403   0.417   0.406   0.395   0.378   0.349   0.347   0.349   0.339   0.340   0.356   0.350   0.339   0.356   0.351   0.350   0.358   0.331   0.328   0.344   0.340   0.335   0.345   0.367   0.371   0.369   0.413   0.404   0.425   0.413   0.383   0.419   0.403   0.424   0.424   0.436   0.434   0.466   0.458   0.449   0.446   0.418   0.415   0.415   0.363   0.380   0.413   0.420   0.393   0.406   0.407   0.424   0.416   0.423   0.418   0.441   0.433   0.441   0.407   0.398   0.390   0.380   0.392   0.391   0.400   0.405   0.382   0.389   0.380   0.397   0.370   0.371   0.377   0.338   0.335   0.316   0.325   0.348   0.368   0.399   0.415   0.416   0.404   0.391   0.436   0.456   0.446   0.434   0.414   0.386   0.378   0.373   0.375   0.373   0.356   0.361   0.354   0.368   0.358   0.358   0.411   0.419   0.438   0.448   0.432   0.406   0.401   0.388   0.402   0.403   0.404   0.378   0.390   0.389   0.388   0.386   0.369   0.341   0.369   0.370   0.377   0.367   0.361
   187.00    0.434   0.412   0.373   0.399   0.391   0.381   0.390   0.369   0.364   0.355   0.348   0.346   0.343   0.319   0.330   0.330   0.341   0.340   0.321   0.311   0.313   0.321   0.337   0.331   0.330   0.333   0.355   0.369   0.361   0.377   0.390   0.383   0.390   0.391   0.389   0.391   0.389   0.389   0.426   0.403   0.413   0.404   0.381   0.357   0.324   0.326   0.322   0.313   0.300   0.313   0.332   0.319   0.335   0.350   0.362   0.345   0.355   0.373   0.356   0.373   0.375   0.372   0.366   0.378   0.380   0.400   0.411   0.388   0.389   0.403   0.394   0.403   0.402   0.366   0.359   0.332   0.354   0.334   0.352   0.361   0.373   0.361   0.363   0.358   0.345   0.343   0.345   0.330   0.351   0.342   0.351   0.341   0.348   0.384   0.402   0.380   0.416   0.401   0.414   0.373   0.396   0.395   0.419   0.417   0.414   0.428   0.439   0.431   0.433   0.440   0.417   0.419   0.408   0.392   0.374   0.351   0.387   0.399   0.401   0.409   0.409   0.431   0.423   0.432   0.441   0.432   0.425   0.452   0.435   0.416   0.394   0.395   0.383   0.380   0.397   0.406   0.386   0.386   0.370   0.400   0.383   0.357   0.388   0.355   0.332   0.329   0.322   0.351   0.357   0.370   0.378   0.391   0.400   0.410   0.454   0.455   0.449   0.411   0.427   0.401   0.361   0.357   0.370   0.365   0.369   0.358   0.378   0.384   0.387   0.366   0.414   0.429   0.408   0.439   0.415   0.398   0.385   0.381   0.374   0.365   0.389   0.365   0.374   0.364   0.380   0.367   0.370   0.346   0.383   0.398   0.385   0.369   0.354
   177.70    0.403   0.368   0.374   0.389   0.391   0.374   0.379   0.388   0.383   0.351   0.361   0.377   0.339   0.320   0.339   0.352   0.347   0.339   0.338   0.302   0.335   0.315   0.337   0.342   0.343   0.356   0.363   0.364   0.381   0.399   0.385   0.396   0.376   0.393   0.386   0.363   0.372   0.415   0.405   0.365   0.394   0.383   0.361   0.375   0.343   0.352   0.341   0.337   0.323   0.319   0.306   0.340   0.351   0.346   0.338   0.361   0.362   0.363   0.354   0.377   0.400   0.413   0.411   0.401   0.395   0.403   0.393   0.395   0.395   0.396   0.410   0.366   0.365   0.365   0.364   0.357   0.351   0.353   0.386   0.358   0.367   0.363   0.356   0.387   0.375   0.363   0.350   0.346   0.328   0.339   0.331   0.379   0.370   0.400   0.379   0.385   0.404   0.402   0.409   0.385   0.395   0.403   0.430   0.419   0.406   0.398   0.392   0.417   0.424   0.425   0.426   0.395   0.378   0.367   0.380   0.380   0.367   0.357   0.381   0.390   0.405   0.411   0.410   0.398   0.416   0.432   0.415   0.444   0.448   0.440   0.405   0.381   0.385   0.368   0.410   0.401   0.416   0.364   0.385   0.390   0.392   0.369   0.372   0.354   0.348   0.337   0.333   0.328   0.349   0.363   0.372   0.387   0.404   0.391   0.420   0.425   0.434   0.412   0.402   0.386   0.369   0.355   0.349   0.372   0.398   0.381   0.375   0.402   0.402   0.367   0.383   0.397   0.394   0.422   0.410   0.401   0.405   0.395   0.398   0.399   0.378   0.379   0.369   0.368   0.378   0.351   0.357   0.344   0.369   0.403   0.420   0.406   0.363
   168.40    0.377   0.370   0.363   0.365   0.388   0.392   0.382   0.392   0.380   0.364   0.351   0.367   0.341   0.323   0.327   0.351   0.343   0.354   0.324   0.343   0.363   0.358   0.343   0.369   0.365   0.387   0.376   0.392   0.401   0.401   0.392   0.388   0.400   0.401   0.367   0.363   0.388   0.394   0.403   0.366   0.395   0.374   0.382   0.348   0.355   0.371   0.376   0.327   0.329   0.300   0.295   0.327   0.352   0.357   0.341   0.322   0.352   0.368   0.393   0.408   0.405   0.425   0.417   0.403   0.397   0.385   0.380   0.388   0.389   0.377   0.388   0.382   0.372   0.380   0.374   0.363   0.371   0.378   0.391   0.391   0.373   0.374   0.376   0.372   0.353   0.377   0.375   0.372   0.361   0.346   0.327   0.378   0.388   0.396   0.368   0.363   0.384   0.372   0.378   0.388   0.386   0.407   0.411   0.399   0.394   0.390   0.384   0.422   0.419   0.407   0.421   0.388   0.380   0.387   0.398   0.386   0.394   0.395   0.401   0.388   0.387   0.381   0.379   0.387   0.389   0.397   0.385   0.424   0.412   0.443   0.411   0.384   0.395   0.392   0.367   0.377   0.402   0.379   0.402   0.402   0.364   0.360   0.347   0.351   0.340   0.357   0.355   0.340   0.345   0.355   0.334   0.378   0.372   0.372   0.397   0.394   0.395   0.405   0.388   0.393   0.364   0.369   0.358   0.379   0.374   0.415   0.385   0.403   0.371   0.385   0.402   0.385   0.391   0.381   0.389   0.363   0.366   0.370   0.387   0.411   0.390   0.369   0.367   0.375   0.373   0.366   0.368   0.370   0.378   0.409   0.431   0.382   0.378
   159.10    0.382   0.377   0.366   0.380   0.392   0.406   0.396   0.381   0.382   0.378   0.378   0.382   0.364   0.377   0.372   0.367   0.354   0.336   0.355   0.349   0.341   0.335   0.325   0.339   0.376   0.408   0.417   0.403   0.397   0.420   0.397   0.377   0.415   0.403   0.382   0.373   0.388   0.375   0.386   0.385   0.370   0.362   0.346   0.336   0.341   0.364   0.372   0.321   0.324   0.318   0.324   0.344   0.328   0.347   0.344   0.339   0.360   0.395   0.395   0.397   0.425   0.396   0.411   0.415   0.421   0.406   0.402   0.386   0.359   0.390   0.403   0.383   0.388   0.407   0.391   0.371   0.377   0.377   0.412   0.419   0.387   0.384   0.380   0.361   0.335   0.381   0.394   0.397   0.367   0.349   0.362   0.388   0.395   0.387   0.396   0.402   0.383   0.383   0.355   0.383   0.385   0.379   0.381   0.376   0.410   0.409   0.401   0.415   0.413   0.398   0.411   0.413   0.379   0.381   0.383   0.404   0.392   0.419   0.408   0.414   0.392   0.360   0.352   0.364   0.357   0.359   0.374   0.392   0.410   0.409   0.409   0.421   0.413   0.400   0.381   0.391   0.358   0.377   0.363   0.370   0.407   0.383   0.346   0.348   0.354   0.343   0.348   0.330   0.353   0.333   0.335   0.343   0.356   0.358   0.380   0.366   0.388   0.400   0.373   0.384   0.369   0.385   0.384   0.389   0.422   0.406   0.373   0.381   0.387   0.394   0.378   0.363   0.363   0.363   0.367   0.362   0.344   0.356   0.365   0.386   0.380   0.366   0.354   0.352   0.370   0.352   0.357   0.388   0.391   0.416   0.418   0.375   0.402
   149.80    0.351   0.367   0.371   0.388   0.393   0.373   0.376   0.370   0.396   0.414   0.420   0.404   0.392   0.387   0.398   0.368   0.344   0.361   0.361   0.365   0.361   0.361   0.359   0.357   0.400   0.397   0.407   0.419   0.439   0.420   0.424   0.421   0.411   0.397   0.372   0.369   0.367   0.377   0.370   0.359   0.361   0.370   0.329   0.321   0.323   0.351   0.367   0.329   0.322   0.317   0.325   0.357   0.351   0.345   0.347   0.364   0.353   0.368   0.392   0.418   0.433   0.411   0.405   0.392   0.392   0.406   0.387   0.356   0.351   0.394   0.416   0.405   0.401   0.412   0.388   0.403   0.372   0.370   0.404   0.402   0.397   0.390   0.379   0.339   0.361   0.350   0.344   0.374   0.380   0.384   0.372   0.397   0.403   0.429   0.419   0.385   0.366   0.352   0.373   0.388   0.386   0.381   0.374   0.365   0.385   0.397   0.381   0.405   0.392   0.397   0.421   0.422   0.375   0.386   0.398   0.422   0.418   0.424   0.416   0.424   0.399   0.394   0.374   0.377   0.363   0.369   0.375   0.388   0.403   0.390   0.364   0.380   0.405   0.400   0.376   0.384   0.375   0.340   0.372   0.401   0.380   0.379   0.355   0.339   0.317   0.333   0.326   0.316   0.344   0.353   0.331   0.359   0.330   0.352   0.356   0.380   0.362   0.389   0.393   0.378   0.365   0.385   0.396   0.381   0.388   0.410   0.416   0.392   0.378   0.376   0.352   0.339   0.351   0.343   0.342   0.336   0.334   0.360   0.363   0.363   0.351   0.337   0.321   0.318   0.326   0.343   0.379   0.413   0.424   0.449   0.419   0.388   0.390
   140.50    0.346   0.358   0.361   0.362   0.394   0.389   0.365   0.375   0.409   0.402   0.406   0.401   0.377   0.401   0.407   0.372   0.346   0.358   0.364   0.369   0.379   0.392   0.391   0.390   0.393   0.392   0.404   0.433   0.418   0.453   0.431   0.409   0.385   0.363   0.357   0.370   0.377   0.393   0.391   0.371   0.366   0.353   0.354   0.350   0.347   0.367   0.376   0.351   0.336   0.330   0.325   0.333   0.345   0.362   0.346   0.360   0.366   0.389   0.401   0.415   0.419   0.424   0.392   0.385   0.372   0.402   0.402   0.398   0.406   0.407   0.424   0.423   0.386   0.389   0.414   0.398   0.377   0.392   0.393   0.395   0.423   0.408   0.394   0.373   0.358   0.364   0.349   0.377   0.391   0.404   0.390   0.419   0.420   0.443   0.401   0.380   0.357   0.365   0.385   0.414   0.391   0.388   0.381   0.368   0.384   0.392   0.397   0.404   0.384   0.368   0.390   0.395   0.384   0.376   0.409   0.446   0.417   0.427   0.423   0.398   0.404   0.379   0.365   0.386   0.394   0.397   0.371   0.379   0.368   0.387   0.394   0.368   0.412   0.410   0.385   0.372   0.400   0.365   0.378   0.396   0.392   0.371   0.365   0.338   0.306   0.322   0.348   0.335   0.353   0.337   0.348   0.354   0.357   0.379   0.397   0.383   0.400   0.404   0.405   0.371   0.375   0.391   0.399   0.386   0.383   0.385   0.409   0.398   0.409   0.348   0.351   0.338   0.357   0.319   0.332   0.314   0.335   0.346   0.350   0.357   0.354   0.338   0.351   0.349   0.329   0.345   0.361   0.394   0.427   0.420   0.396   0.383   0.391
   131.20    0.356   0.380   0.356   0.362   0.389   0.383   0.358   0.383   0.377   0.406   0.413   0.404   0.395   0.402   0.365   0.353   0.323   0.347   0.364   0.386   0.405   0.392   0.391   0.406   0.394   0.399   0.402   0.436   0.447   0.474   0.459   0.417   0.402   0.390   0.376   0.394   0.408   0.428   0.384   0.398   0.364   0.370   0.352   0.342   0.377   0.385   0.371   0.364   0.339   0.330   0.323   0.327   0.344   0.362   0.366   0.385   0.367   0.370   0.406   0.396   0.424   0.436   0.420   0.395   0.403   0.407   0.423   0.423   0.448   0.411   0.429   0.410   0.399   0.427   0.424   0.410   0.396   0.400   0.405   0.392   0.416   0.415   0.392   0.376   0.391   0.386   0.364   0.383   0.406   0.384   0.402   0.441   0.416   0.448   0.400   0.397   0.400   0.387   0.372   0.378   0.387   0.418   0.401   0.383   0.371   0.348   0.361   0.352   0.382   0.387   0.362   0.380   0.387   0.381   0.380   0.421   0.432   0.400   0.397   0.399   0.398   0.384   0.389   0.381   0.377   0.371   0.358   0.357   0.372   0.392   0.385   0.403   0.403   0.368   0.376   0.384   0.396   0.393   0.377   0.394   0.361   0.344   0.362   0.347   0.344   0.322   0.336   0.333   0.353   0.344   0.367   0.371   0.389   0.412   0.381   0.374   0.395   0.399   0.408   0.364   0.357   0.373   0.382   0.365   0.364   0.369   0.393   0.423   0.414   0.384   0.356   0.339   0.335   0.317   0.326   0.318   0.330   0.360   0.373   0.344   0.348   0.360   0.344   0.325   0.326   0.355   0.370   0.390   0.403   0.404   0.426   0.420   0.407
   121.90    0.386   0.408   0.386   0.375   0.402   0.383   0.358   0.360   0.378   0.408   0.410   0.389   0.394   0.388   0.359   0.352   0.365   0.351   0.379   0.407   0.404   0.415   0.421   0.439   0.414   0.443   0.430   0.447   0.464   0.451   0.446   0.408   0.404   0.378   0.380   0.399   0.393   0.415   0.406   0.394   0.388   0.383   0.364   0.396   0.378   0.372   0.367   0.329   0.344   0.345   0.334   0.350   0.378   0.405   0.403   0.399   0.392   0.371   0.405   0.403   0.433   0.433   0.392   0.371   0.392   0.396   0.396   0.431   0.414   0.413   0.402   0.400   0.406   0.408   0.411   0.402   0.397   0.384   0.414   0.421   0.399   0.398   0.390   0.377   0.401   0.386   0.402   0.421   0.411   0.388   0.443   0.461   0.453   0.436   0.407   0.395   0.392   0.392   0.404   0.389   0.403   0.397   0.399   0.388   0.359   0.344   0.330   0.335   0.362   0.367   0.383   0.379   0.390   0.419   0.371   0.391   0.418   0.410   0.407   0.397   0.376   0.390   0.397   0.399   0.391   0.410   0.389   0.376   0.382   0.387   0.402   0.411   0.380   0.390   0.395   0.403   0.424   0.420   0.382   0.384   0.365   0.345   0.356   0.366   0.352   0.328   0.331   0.316   0.330   0.345   0.366   0.384   0.388   0.390   0.370   0.377   0.369   0.374   0.371   0.358   0.356   0.352   0.381   0.369   0.357   0.390   0.398   0.402   0.393   0.372   0.355   0.339   0.366   0.353   0.334   0.325   0.324   0.350   0.330   0.348   0.325   0.342   0.334   0.335   0.347   0.359   0.356   0.382   0.396   0.389   0.384   0.389   0.404
   112.60    0.384   0.410   0.406   0.422   0.425   0.385   0.360   0.388   0.384   0.393   0.404   0.393   0.368   0.347   0.367   0.362   0.368   0.368   0.375   0.405   0.402   0.432   0.428   0.443   0.438   0.442   0.441   0.443   0.450   0.423   0.422   0.403   0.379   0.375   0.401   0.435   0.433   0.449   0.434   0.407   0.399   0.394   0.400   0.392   0.400   0.378   0.351   0.355   0.345   0.353   0.358   0.376   0.387   0.402   0.406   0.405   0.415   0.420   0.373   0.387   0.393   0.395   0.388   0.384   0.389   0.405   0.444   0.449   0.425   0.410   0.400   0.408   0.417   0.406   0.385   0.408   0.414   0.417   0.443   0.400   0.403   0.410   0.415   0.379   0.372   0.400   0.407   0.412   0.430   0.412   0.449   0.465   0.433   0.434   0.435   0.406   0.396   0.373   0.374   0.393   0.392   0.385   0.378   0.351   0.347   0.341   0.338   0.316   0.317   0.360   0.360   0.389   0.375   0.374   0.372   0.400   0.394   0.378   0.410   0.399   0.396   0.373   0.391   0.417   0.423   0.415   0.420   0.398   0.383   0.383   0.417   0.420   0.418   0.405   0.415   0.416   0.423   0.409   0.393   0.371   0.357   0.361   0.377   0.357   0.364   0.344   0.348   0.332   0.342   0.356   0.396   0.387   0.401   0.393   0.380   0.390   0.381   0.377   0.373   0.366   0.357   0.347   0.368   0.361   0.380   0.397   0.430   0.409   0.388   0.368   0.364   0.348   0.352   0.367   0.347   0.328   0.333   0.325   0.318   0.322   0.330   0.336   0.349   0.352   0.334   0.336   0.362   0.373   0.377   0.386   0.369   0.378   0.389
   103.30    0.413   0.417   0.406   0.408   0.385   0.377   0.384   0.401   0.357   0.384   0.395   0.394   0.379   0.360   0.353   0.372   0.374   0.389   0.371   0.391   0.425   0.423   0.450   0.438   0.447   0.439   0.433   0.444   0.442   0.417   0.411   0.413   0.389   0.410   0.406   0.437   0.458   0.435   0.447   0.416   0.394   0.383   0.391   0.410   0.373   0.364   0.366   0.376   0.384   0.370   0.367   0.367   0.398   0.397   0.415   0.410   0.406   0.401   0.384   0.388   0.376   0.377   0.383   0.394   0.401   0.421   0.421   0.425   0.416   0.407   0.406   0.418   0.424   0.429   0.383   0.399   0.403   0.427   0.437   0.416   0.400   0.412   0.423   0.426   0.429   0.417   0.433   0.450   0.430   0.438   0.429   0.440   0.449   0.450   0.420   0.397   0.415   0.391   0.376   0.376   0.386   0.375   0.380   0.331   0.333   0.320   0.338   0.325   0.315   0.339   0.342   0.357   0.366   0.390   0.375   0.399   0.380   0.370   0.393   0.365   0.376   0.382   0.382   0.407   0.402   0.406   0.398   0.408   0.384   0.386   0.415   0.412   0.430   0.438   0.422   0.405   0.426   0.397   0.403   0.364   0.353   0.389   0.408   0.374   0.366   0.339   0.357   0.333   0.343   0.385   0.398   0.406   0.390   0.395   0.373   0.385   0.378   0.397   0.411   0.392   0.374   0.381   0.389   0.383   0.357   0.392   0.390   0.402   0.393   0.385   0.372   0.375   0.380   0.382   0.343   0.352   0.330   0.305   0.307   0.335   0.343   0.351   0.325   0.346   0.348   0.360   0.338   0.356   0.365   0.382   0.389   0.386   0.384
    94.00    0.396   0.394   0.384   0.420   0.398   0.377   0.359   0.382   0.393   0.353   0.374   0.362   0.377   0.357   0.346   0.362   0.380   0.408   0.422   0.388   0.400   0.426   0.425   0.449   0.431   0.449   0.438   0.457   0.450   0.416   0.384   0.397   0.405   0.407   0.409   0.448   0.430   0.434   0.446   0.433   0.390   0.367   0.393   0.399   0.381   0.360   0.355   0.339   0.376   0.367   0.361   0.361   0.407   0.400   0.408   0.390   0.398   0.403   0.401   0.375   0.371   0.395   0.383   0.395   0.428   0.424   0.405   0.391   0.384   0.382   0.390   0.407   0.410   0.401   0.393   0.420   0.418   0.442   0.463   0.467   0.439   0.430   0.431   0.454   0.452   0.457   0.452   0.446   0.431   0.434   0.421   0.429   0.424   0.425   0.400   0.396   0.370   0.384   0.380   0.391   0.384   0.370   0.351   0.339   0.318   0.332   0.325   0.339   0.334   0.330   0.364   0.353   0.375   0.363   0.359   0.366   0.395   0.362   0.345   0.364   0.377   0.371   0.379   0.386   0.375   0.377   0.395   0.401   0.389   0.416   0.408   0.417   0.434   0.428   0.414   0.399   0.423   0.440   0.419   0.405   0.393   0.397   0.390   0.397   0.377   0.372   0.357   0.371   0.357   0.388   0.410   0.433   0.399   0.369   0.371   0.379   0.398   0.436   0.414   0.392   0.386   0.366   0.375   0.370   0.370   0.392   0.382   0.405   0.397   0.373   0.363   0.387   0.376   0.384   0.360   0.352   0.355   0.322   0.344   0.321   0.320   0.331   0.343   0.358   0.353   0.341   0.363   0.343   0.385   0.364   0.365   0.376   0.369
    84.70    0.379   0.381   0.407   0.407   0.406   0.381   0.368   0.361   0.388   0.371   0.363   0.362   0.359   0.340   0.349   0.383   0.377   0.375   0.399   0.402   0.396   0.384   0.405   0.439   0.441   0.464   0.457   0.449   0.441   0.409   0.394   0.388   0.399   0.403   0.409   0.444   0.440   0.429   0.430   0.415   0.405   0.389   0.391   0.396   0.389   0.381   0.376   0.353   0.359   0.382   0.360   0.391   0.432   0.407   0.412   0.413   0.388   0.389   0.390   0.389   0.388   0.379   0.397   0.395   0.425   0.413   0.401   0.398   0.380   0.384   0.381   0.374   0.393   0.390   0.382   0.426   0.453   0.461   0.484   0.445   0.439   0.430   0.436   0.469   0.471   0.476   0.433   0.438   0.436   0.400   0.394   0.394   0.421   0.418   0.416   0.390   0.360   0.378   0.360   0.350   0.378   0.365   0.348   0.328   0.327   0.341   0.328   0.326   0.323   0.331   0.341   0.361   0.338   0.341   0.337   0.359   0.368   0.376   0.351   0.352   0.375   0.382   0.369   0.351   0.352   0.357   0.352   0.370   0.371   0.367   0.382   0.413   0.405   0.431   0.423   0.407   0.419   0.436   0.436   0.413   0.420   0.408   0.418   0.398   0.383   0.380   0.386   0.381   0.368   0.380   0.401   0.434   0.411   0.370   0.365   0.381   0.390   0.412   0.407   0.397   0.396   0.375   0.392   0.375   0.370   0.366   0.372   0.408   0.394   0.398   0.396   0.352   0.358   0.365   0.353   0.343   0.340   0.363   0.378   0.353   0.342   0.339   0.348   0.334   0.368   0.363   0.376   0.382   0.372   0.392   0.380   0.363   0.390
    75.40    0.377   0.391   0.406   0.431   0.411   0.384   0.353   0.347   0.361   0.379   0.371   0.367   0.377   0.351   0.354   0.364   0.357   0.366   0.387   0.417   0.389   0.357   0.405   0.412   0.418   0.417   0.406   0.425   0.444   0.429   0.390   0.389   0.385   0.375   0.419   0.422   0.435   0.443   0.440   0.433   0.412   0.415   0.401   0.406   0.409   0.410   0.413   0.375   0.369   0.368   0.372   0.396   0.432   0.409   0.404   0.400   0.402   0.423   0.403   0.388   0.390   0.395   0.403   0.416   0.421   0.416   0.415   0.398   0.402   0.384   0.391   0.400   0.379   0.378   0.423   0.414   0.439   0.484   0.479   0.458   0.453   0.451   0.439   0.445   0.459   0.438   0.437   0.447   0.419   0.417   0.391   0.379   0.405   0.388   0.397   0.403   0.413   0.377   0.354   0.340   0.363   0.359   0.348   0.342   0.314   0.312   0.334   0.323   0.325   0.337   0.343   0.327   0.342   0.335   0.375   0.374   0.358   0.381   0.389   0.391   0.366   0.376   0.360   0.360   0.351   0.377   0.344   0.371   0.381   0.387   0.383   0.379   0.389   0.416   0.388   0.413   0.451   0.446   0.422   0.434   0.439   0.436   0.416   0.396   0.391   0.388   0.388   0.379   0.380   0.398   0.416   0.416   0.420   0.414   0.400   0.387   0.375   0.386   0.384   0.377   0.385   0.394   0.383   0.367   0.363   0.376   0.366   0.403   0.414   0.378   0.379   0.368   0.344   0.357   0.361   0.337   0.336   0.356   0.345   0.351   0.353   0.374   0.345   0.364   0.365   0.394   0.399   0.391   0.392   0.385   0.404   0.407   0.405
    66.10    0.396   0.372   0.422   0.423   0.406   0.407   0.351   0.344   0.341   0.356   0.342   0.353   0.355   0.368   0.382   0.360   0.343   0.355   0.393   0.395   0.392   0.366   0.388   0.373   0.404   0.415   0.410   0.411   0.413   0.447   0.432   0.423   0.406   0.397   0.403   0.430   0.418   0.429   0.435   0.450   0.431   0.437   0.413   0.420   0.404   0.392   0.407   0.373   0.355   0.348   0.369   0.383   0.396   0.421   0.413   0.368   0.394   0.417   0.411   0.400   0.395   0.392   0.383   0.418   0.420   0.404   0.420   0.388   0.368   0.382   0.414   0.397   0.382   0.376   0.398   0.439   0.443   0.460   0.461   0.458   0.433   0.457   0.465   0.474   0.474   0.452   0.426   0.439   0.433   0.418   0.404   0.385   0.403   0.403   0.414   0.412   0.416   0.382   0.386   0.363   0.343   0.356   0.344   0.337   0.334   0.320   0.329   0.340   0.329   0.317   0.336   0.356   0.326   0.352   0.360   0.369   0.380   0.398   0.386   0.380   0.350   0.363   0.351   0.375   0.378   0.364   0.366   0.364   0.391   0.393   0.376   0.380   0.391   0.405   0.407   0.417   0.423   0.430   0.407   0.425   0.460   0.433   0.404   0.401   0.400   0.402   0.395   0.391   0.387   0.396   0.401   0.420   0.439   0.412   0.394   0.402   0.395   0.391   0.364   0.384   0.377   0.390   0.391   0.365   0.352   0.370   0.372   0.405   0.392   0.381   0.388   0.364   0.350   0.328   0.327   0.315   0.349   0.355   0.341   0.338   0.357   0.359   0.375   0.389   0.397   0.403   0.408   0.388   0.393   0.354   0.385   0.392   0.405
    56.80    0.399   0.413   0.405   0.393   0.364   0.383   0.402   0.360   0.335   0.345   0.347   0.342   0.353   0.387   0.374   0.348   0.340   0.362   0.385   0.375   0.387   0.376   0.385   0.383   0.377   0.397   0.394   0.413   0.413   0.422   0.430   0.402   0.413   0.428   0.424   0.429   0.425   0.436   0.440   0.453   0.414   0.398   0.395   0.411   0.381   0.375   0.372   0.369   0.375   0.339   0.342   0.361   0.375   0.372   0.399   0.397   0.407   0.405   0.384   0.370   0.364   0.365   0.387   0.402   0.411   0.422   0.401   0.402   0.372   0.375   0.372   0.376   0.363   0.388   0.394   0.422   0.468   0.452   0.456   0.456   0.433   0.442   0.463   0.480   0.469   0.470   0.444   0.467   0.427   0.431   0.431   0.415   0.413   0.401   0.397   0.384   0.408   0.427   0.405   0.393   0.377   0.350   0.341   0.344   0.363   0.344   0.352   0.352   0.349   0.345   0.327   0.331   0.327   0.347   0.361   0.368   0.370   0.373   0.404   0.379   0.384   0.373   0.367   0.386   0.395   0.376   0.382   0.357   0.378   0.401   0.395   0.399   0.368   0.416   0.418   0.455   0.415   0.425   0.421   0.424   0.432   0.418   0.413   0.433   0.418   0.427   0.405   0.380   0.381   0.383   0.407   0.381   0.419   0.413   0.427   0.425   0.418   0.382   0.370   0.375   0.376   0.401   0.381   0.355   0.353   0.360   0.358   0.386   0.369   0.388   0.384   0.368   0.334   0.333   0.333   0.323   0.330   0.338   0.338   0.325   0.359   0.365   0.373   0.401   0.396   0.405   0.413   0.396   0.382   0.371   0.371   0.367   0.381
    47.50    0.397   0.410   0.417   0.382   0.393   0.401   0.392   0.396   0.349   0.348   0.368   0.358   0.357   0.386   0.366   0.350   0.370   0.378   0.360   0.361   0.370   0.380   0.359   0.365   0.363   0.366   0.365   0.406   0.412   0.412   0.426   0.429   0.413   0.431   0.452   0.435   0.432   0.426   0.415   0.434   0.407   0.406   0.387   0.396   0.385   0.380   0.371   0.372   0.345   0.351   0.363   0.377   0.359   0.389   0.394   0.395   0.410   0.437   0.421   0.371   0.362   0.367   0.379   0.394   0.405   0.412   0.397   0.387   0.349   0.369   0.349   0.361   0.376   0.378   0.394   0.406   0.440   0.455   0.466   0.452   0.440   0.435   0.466   0.460   0.463   0.457   0.461   0.477   0.451   0.446   0.433   0.426   0.390   0.389   0.395   0.403   0.418   0.416   0.405   0.398   0.381   0.367   0.365   0.360   0.346   0.338   0.348   0.341   0.340   0.346   0.367   0.343   0.326   0.325   0.359   0.379   0.366   0.385   0.396   0.381   0.385   0.400   0.406   0.418   0.379   0.392   0.367   0.352   0.375   0.366   0.353   0.374   0.392   0.428   0.411   0.435   0.436   0.453   0.428   0.435   0.434   0.431   0.435   0.429   0.442   0.418   0.394   0.390   0.375   0.396   0.381   0.389   0.415   0.408   0.415   0.405   0.390   0.367   0.338   0.341   0.339   0.360   0.362   0.340   0.318   0.353   0.352   0.372   0.367   0.384   0.387   0.360   0.343   0.334   0.329   0.320   0.322   0.315   0.339   0.342   0.354   0.366   0.388   0.394   0.413   0.394   0.404   0.397   0.368   0.372   0.347   0.350   0.367
    38.20    0.386   0.411   0.420   0.394   0.395   0.379   0.404   0.392   0.356   0.348   0.375   0.376   0.373   0.372   0.352   0.350   0.352   0.379   0.358   0.361   0.376   0.365   0.370   0.354   0.372   0.382   0.375   0.391   0.417   0.430   0.450   0.440   0.434   0.421   0.453   0.436   0.432   0.431   0.445   0.437   0.399   0.382   0.399   0.378   0.391   0.399   0.373   0.358   0.358   0.357   0.359   0.358   0.381   0.388   0.409   0.406   0.424   0.450   0.415   0.390   0.361   0.358   0.363   0.348   0.377   0.385   0.403   0.392   0.341   0.342   0.358   0.377   0.382   0.385   0.384   0.369   0.399   0.443   0.443   0.421   0.446   0.464   0.451   0.445   0.462   0.477   0.467   0.482   0.438   0.451   0.459   0.432   0.390   0.379   0.396   0.394   0.381   0.406   0.401   0.396   0.372   0.366   0.330   0.334   0.345   0.339   0.340   0.347   0.329   0.333   0.355   0.354   0.352   0.383   0.368   0.375   0.390   0.414   0.401   0.399   0.389   0.419   0.423   0.403   0.379   0.390   0.391   0.366   0.369   0.370   0.327   0.365   0.380   0.386   0.402   0.416   0.426   0.445   0.420   0.415   0.428   0.440   0.433   0.440   0.455   0.408   0.401   0.363   0.376   0.388   0.360   0.389   0.394   0.412   0.399   0.385   0.361   0.358   0.331   0.315   0.340   0.333   0.350   0.337   0.318   0.334   0.362   0.387   0.380   0.377   0.387   0.362   0.342   0.332   0.345   0.317   0.313   0.305   0.328   0.330   0.385   0.375   0.404   0.386   0.385   0.415   0.403   0.394   0.353   0.368   0.348   0.350   0.357
    28.90    0.383   0.379   0.392   0.376   0.376   0.385   0.397   0.417   0.355   0.357   0.388   0.396   0.395   0.364   0.367   0.346   0.357   0.362   0.372   0.360   0.368   0.383   0.364   0.349   0.369   0.389   0.381   0.397   0.408   0.398   0.424   0.420   0.425   0.435   0.434   0.433   0.434   0.413   0.431   0.440   0.422   0.402   0.399   0.408   0.396   0.382   0.391   0.375   0.377   0.339   0.338   0.351   0.355   0.391   0.417   0.400   0.422   0.409   0.400   0.393   0.380   0.378   0.374   0.385   0.372   0.372   0.395   0.370   0.383   0.386   0.377   0.385   0.394   0.378   0.376   0.380   0.424   0.442   0.427   0.453   0.450   0.468   0.472   0.452   0.463   0.468   0.458   0.463   0.440   0.453   0.459   0.411   0.428   0.416   0.384   0.398   0.368   0.382   0.382   0.386   0.396   0.370   0.367   0.351   0.339   0.334   0.318   0.317   0.328   0.344   0.351   0.388   0.373   0.393   0.362   0.352   0.407   0.407   0.415   0.418   0.416   0.418   0.396   0.375   0.350   0.377   0.417   0.385   0.401   0.405   0.370   0.375   0.358   0.379   0.395   0.381   0.371   0.398   0.405   0.406   0.418   0.428   0.433   0.428   0.430   0.419   0.384   0.371   0.381   0.383   0.360   0.393   0.386   0.399   0.425   0.370   0.361   0.346   0.327   0.299   0.307   0.345   0.349   0.344   0.329   0.329   0.356   0.361   0.376   0.385   0.379   0.363   0.359   0.341   0.306   0.320   0.330   0.339   0.320   0.334   0.367   0.356   0.383   0.377   0.384   0.395   0.409   0.354   0.353   0.353   0.351   0.364   0.372
    19.60    0.409   0.398   0.366   0.376   0.375   0.388   0.394   0.370   0.386   0.358   0.392   0.397   0.384   0.384   0.346   0.339   0.352   0.383   0.360   0.383   0.370   0.351   0.337   0.350   0.344   0.356   0.353   0.379   0.388   0.391   0.418   0.425   0.409   0.430   0.486   0.450   0.421   0.428   0.422   0.399   0.402   0.393   0.422   0.424   0.421   0.411   0.382   0.376   0.378   0.349   0.348   0.342   0.361   0.377   0.374   0.398   0.385   0.400   0.391   0.367   0.371   0.372   0.391   0.398   0.399   0.366   0.382   0.401   0.401   0.409   0.399   0.393   0.420   0.401   0.386   0.393   0.434   0.430   0.428   0.435   0.453   0.445   0.432   0.430   0.472   0.472   0.487   0.463   0.461   0.448   0.472   0.422   0.412   0.409   0.413   0.402   0.365   0.371   0.371   0.394   0.390   0.372   0.359   0.367   0.341   0.304   0.316   0.328   0.325   0.345   0.367   0.381   0.406   0.408   0.395   0.410   0.412   0.398   0.417   0.437   0.418   0.418   0.374   0.365   0.384   0.393   0.376   0.387   0.373   0.355   0.367   0.367   0.377   0.379   0.397   0.380   0.408   0.375   0.380   0.398   0.411   0.397   0.429   0.440   0.425   0.426   0.404   0.390   0.376   0.355   0.370   0.353   0.373   0.382   0.426   0.380   0.362   0.325   0.289   0.305   0.307   0.344   0.332   0.357   0.346   0.344   0.346   0.348   0.358   0.395   0.388   0.362   0.342   0.326   0.342   0.352   0.342   0.325   0.324   0.341   0.357   0.366   0.367   0.391   0.392   0.411   0.407   0.406   0.374   0.387   0.375   0.387   0.393
    10.30    0.392   0.383   0.385   0.389   0.398   0.380   0.372   0.383   0.388   0.378   0.379   0.380   0.382   0.371   0.368   0.363   0.360   0.383   0.367   0.368   0.339   0.343   0.348   0.337   0.356   0.321   0.351   0.352   0.385   0.406   0.427   0.390   0.415   0.431   0.456   0.426   0.416   0.426   0.415   0.425   0.394   0.376   0.418   0.426   0.430   0.402   0.395   0.391   0.368   0.353   0.364   0.370   0.352   0.320   0.349   0.369   0.372   0.379   0.376   0.375   0.351   0.343   0.368   0.387   0.404   0.423   0.400   0.404   0.394   0.420   0.404   0.422   0.418   0.408   0.432   0.405   0.424   0.412   0.431   0.425   0.438   0.443   0.413   0.437   0.442   0.477   0.478   0.468   0.463   0.434   0.444   0.424   0.426   0.408   0.412   0.380   0.385   0.377   0.389   0.394   0.387   0.390   0.386   0.390   0.347   0.339   0.335   0.331   0.351   0.376   0.398   0.413   0.426   0.409   0.434   0.411   0.419   0.431   0.422   0.441   0.455   0.438   0.413   0.394   0.379   0.387   0.370   0.385   0.345   0.346   0.341   0.345   0.343   0.347   0.361   0.358   0.376   0.361   0.347   0.385   0.410   0.384   0.412   0.394   0.404   0.400   0.406   0.380   0.359   0.351   0.381   0.400   0.391   0.379   0.400   0.394   0.363   0.325   0.319   0.293   0.300   0.318   0.328   0.327   0.353   0.334   0.322   0.361   0.352   0.369   0.355   0.330   0.337   0.340   0.362   0.349   0.342   0.330   0.323   0.348   0.344   0.354   0.396   0.386   0.394   0.366   0.367   0.385   0.399   0.396   0.377   0.393   0.412
     1.00    0.382   0.386   0.366   0.378   0.394   0.389   0.366   0.379   0.400   0.383   0.394   0.399   0.396   0.391   0.413   0.399   0.377   0.372   0.355   0.369   0.336   0.336   0.335   0.338   0.322   0.338   0.330   0.360   0.380   0.413   0.408   0.395   0.380   0.404   0.419   0.410   0.412   0.394   0.404   0.394   0.386   0.393   0.424   0.417   0.424   0.394   0.395   0.389   0.381   0.382   0.380   0.389   0.371   0.345   0.353   0.347   0.352   0.355   0.386   0.373   0.340   0.346   0.341   0.384   0.406   0.425   0.408   0.397   0.402   0.428   0.424   0.429   0.426   0.425   0.431   0.421   0.442   0.430   0.417   0.454   0.452   0.452   0.456   0.441   0.434   0.465   0.479   0.470   0.424   0.418   0.433   0.402   0.428   0.416   0.372   0.395   0.377   0.395   0.395   0.398   0.389   0.397   0.380   0.386   0.360   0.359   0.380   0.368   0.351   0.384   0.388   0.392   0.425   0.430   0.454   0.444   0.458   0.467   0.454   0.451   0.428   0.422   0.439   0.416   0.386   0.381   0.406   0.394   0.391   0.397   0.394   0.346   0.351   0.367   0.339   0.334   0.352   0.351   0.362   0.393   0.410   0.405   0.400   0.418   0.411   0.432   0.386   0.372   0.343   0.355   0.372   0.402   0.402   0.373   0.383   0.403   0.369   0.347   0.333   0.325   0.323   0.345   0.342   0.353   0.360   0.366   0.372   0.368   0.343   0.355   0.335   0.335   0.336   0.337   0.319   0.338   0.328   0.318   0.339   0.351   0.338   0.361   0.373   0.384   0.373   0.360   0.367   0.375   0.375   0.375   0.379   0.404   0.397

   Height   Standard deviation at grid points for the v component:
   354.40    0.301   0.315   0.301   0.302   0.305   0.291   0.295   0.299   0.308   0.315   0.309   0.301   0.313   0.309   0.317   0.310   0.288   0.266   0.282   0.299   0.296   0.308   0.285   0.293   0.303   0.295   0.296   0.297   0.305   0.309   0.301   0.309   0.297   0.284   0.281   0.294   0.300   0.305   0.309   0.305   0.318   0.317   0.310   0.312   0.295   0.299   0.306   0.295   0.271   0.285   0.269   0.277   0.299   0.272   0.283   0.296   0.283   0.310   0.313   0.305   0.328   0.333   0.348   0.328   0.333   0.340   0.322   0.318   0.332   0.318   0.328   0.315   0.310   0.316   0.321   0.304   0.322   0.306   0.283   0.274   0.301   0.304   0.284   0.263   0.262   0.261   0.263   0.279   0.278   0.285   0.309   0.320   0.317   0.313   0.306   0.315   0.297   0.292   0.292   0.304   0.307   0.308   0.303   0.314   0.320   0.312   0.320   0.326   0.348   0.321   0.321   0.329   0.314   0.310   0.322   0.303   0.292   0.289   0.271   0.271   0.277   0.289   0.278   0.284   0.287   0.277   0.290   0.297   0.302   0.307   0.294   0.278   0.276   0.285   0.285   0.296   0.301   0.312   0.321   0.316   0.327   0.302   0.307   0.309   0.312   0.306   0.314   0.295   0.300   0.303   0.295   0.303   0.324   0.328   0.319   0.300   0.314   0.309   0.331   0.346   0.323   0.354   0.353   0.353   0.355   0.353   0.348   0.334   0.307   0.317   0.301   0.318   0.290   0.314   0.304   0.298   0.274   0.307   0.312   0.287   0.289   0.280   0.302   0.291   0.300   0.299   0.311   0.315   0.327   0.315   0.319   0.327   0.327
   345.10    0.305   0.306   0.306   0.296   0.305   0.294   0.298   0.304   0.317   0.328   0.324   0.309   0.328   0.325   0.314   0.308   0.297   0.280   0.279   0.292   0.302   0.299   0.295   0.305   0.298   0.296   0.292   0.288   0.296   0.299   0.294   0.306   0.305   0.293   0.286   0.291   0.287   0.286   0.296   0.308   0.319   0.311   0.306   0.301   0.306   0.294   0.292   0.269   0.260   0.262   0.263   0.279   0.278   0.284   0.273   0.295   0.291   0.306   0.297   0.306   0.324   0.330   0.349   0.337   0.349   0.339   0.337   0.340   0.315   0.329   0.332   0.313   0.311   0.317   0.321   0.314   0.322   0.294   0.300   0.297   0.303   0.301   0.293   0.276   0.278   0.276   0.276   0.283   0.275   0.295   0.298   0.306   0.318   0.305   0.309   0.300   0.293   0.296   0.306   0.295   0.306   0.311   0.311   0.306   0.304   0.307   0.317   0.320   0.336   0.336   0.323   0.328   0.324   0.318   0.316   0.325   0.311   0.284   0.265   0.269   0.282   0.278   0.295   0.305   0.272   0.276   0.291   0.299   0.308   0.301   0.287   0.288   0.291   0.290   0.289   0.301   0.293   0.304   0.306   0.306   0.333   0.302   0.302   0.313   0.324   0.323   0.302   0.296   0.295   0.312   0.289   0.297   0.307   0.313   0.313   0.306   0.293   0.317   0.322   0.324   0.339   0.340   0.364   0.348   0.340   0.342   0.365   0.347   0.336   0.314   0.305   0.311   0.312   0.294   0.304   0.300   0.290   0.287   0.291   0.292   0.296   0.306   0.299   0.304   0.283   0.304   0.305   0.320   0.338   0.327   0.347   0.341   0.334
   335.80    0.317   0.306   0.291   0.280   0.307   0.305   0.298   0.296   0.308   0.331   0.324   0.302   0.315   0.327   0.317   0.304   0.307   0.301   0.295   0.289   0.316   0.303   0.298   0.299   0.287   0.293   0.297   0.290   0.300   0.309   0.314   0.284   0.300   0.305   0.297   0.302   0.302   0.276   0.286   0.290   0.306   0.309   0.313   0.294   0.297   0.301   0.287   0.272   0.270   0.287   0.279   0.289   0.283   0.276   0.288   0.294   0.293   0.288   0.314   0.304   0.329   0.330   0.339   0.335   0.336   0.328   0.335   0.336   0.340   0.344   0.333   0.323   0.322   0.327   0.315   0.320   0.318   0.304   0.309   0.316   0.295   0.292   0.283   0.259   0.269   0.279   0.285   0.293   0.299   0.284   0.286   0.299   0.317   0.324   0.303   0.298   0.311   0.313   0.299   0.292   0.284   0.299   0.315   0.309   0.297   0.297   0.311   0.317   0.326   0.329   0.316   0.325   0.313   0.312   0.322   0.318   0.308   0.300   0.296   0.295   0.289   0.286   0.306   0.309   0.296   0.295   0.297   0.292   0.301   0.281   0.282   0.292   0.280   0.299   0.307   0.309   0.297   0.314   0.308   0.299   0.301   0.323   0.324   0.309   0.316   0.313   0.291   0.283   0.295   0.303   0.304   0.296   0.291   0.317   0.328   0.312   0.311   0.289   0.310   0.330   0.331   0.332   0.360   0.361   0.348   0.343   0.357   0.338   0.334   0.337   0.326   0.323   0.318   0.315   0.304   0.310   0.288   0.296   0.307   0.311   0.313   0.302   0.290   0.289   0.295   0.303   0.305   0.316   0.342   0.346   0.343   0.344   0.353
   326.50    0.312   0.300   0.308   0.307   0.303   0.292   0.294   0.301   0.316   0.331   0.324   0.321   0.333   0.333   0.323   0.307   0.302   0.292   0.301   0.304   0.291   0.309   0.290   0.306   0.297   0.305   0.285   0.265   0.282   0.287   0.319   0.287   0.290   0.299   0.301   0.296   0.279   0.270   0.286   0.297   0.296   0.308   0.305   0.288   0.278   0.287   0.285   0.277   0.281   0.294   0.277   0.284   0.296   0.299   0.286   0.278   0.289   0.303   0.322   0.340   0.336   0.358   0.351   0.341   0.324   0.330   0.311   0.319   0.318   0.320   0.330   0.317   0.318   0.316   0.321   0.310   0.326   0.295   0.285   0.299   0.290   0.278   0.279   0.268   0.273   0.282   0.284   0.280   0.289   0.286   0.288   0.302   0.306   0.302   0.290   0.292   0.298   0.317   0.291   0.284   0.287   0.303   0.304   0.309   0.327   0.307   0.301   0.309   0.317   0.318   0.327   0.325   0.312   0.318   0.327   0.315   0.292   0.309   0.308   0.287   0.276   0.284   0.300   0.296   0.326   0.303   0.300   0.298   0.311   0.287   0.290   0.284   0.291   0.308   0.312   0.306   0.299   0.307   0.298   0.294   0.300   0.316   0.316   0.312   0.312   0.289   0.306   0.293   0.291   0.304   0.310   0.304   0.304   0.328   0.321   0.314   0.302   0.301   0.312   0.318   0.333   0.352   0.355   0.380   0.361   0.355   0.345   0.349   0.328   0.315   0.322   0.316   0.320   0.310   0.303   0.308   0.304   0.301   0.308   0.321   0.320   0.301   0.283   0.288   0.288   0.313   0.306   0.316   0.323   0.330   0.346   0.346   0.329
[...]
   103.30    0.189   0.189   0.182   0.188   0.191   0.191   0.188   0.187   0.183   0.188   0.193   0.194   0.185   0.187   0.191   0.188   0.189   0.186   0.183   0.184   0.191   0.189   0.184   0.190   0.190   0.192   0.191   0.185   0.184   0.183   0.185   0.182   0.185   0.187   0.185   0.181   0.184   0.189   0.189   0.181   0.181   0.178   0.182   0.187   0.191   0.192   0.195   0.187   0.190   0.191   0.191   0.191   0.190   0.191   0.187   0.192   0.188   0.189   0.194   0.193   0.189   0.188   0.186   0.186   0.182   0.182   0.186   0.194   0.186   0.186   0.185   0.189   0.188   0.188   0.187   0.192   0.193   0.196   0.192   0.189   0.184   0.191   0.189   0.194   0.195   0.197   0.193   0.192   0.192   0.196   0.193   0.191   0.195   0.192   0.191   0.196   0.186   0.187   0.181   0.186   0.186   0.186   0.182   0.184   0.180   0.183   0.181   0.178   0.176   0.187   0.187   0.177   0.186   0.186   0.186   0.186   0.193   0.189   0.184   0.188   0.184   0.180   0.177   0.189   0.191   0.192   0.191   0.188   0.188   0.183   0.185   0.186   0.185   0.178   0.187   0.190   0.189   0.186   0.187   0.195   0.189   0.191   0.196   0.195   0.193   0.192   0.198   0.191   0.190   0.195   0.193   0.199   0.194   0.190   0.197   0.192   0.200   0.191   0.191   0.183   0.189   0.185   0.190   0.196   0.196   0.197   0.198   0.199   0.197   0.200   0.193   0.186   0.192   0.185   0.188   0.187   0.186   0.184   0.187   0.189   0.183   0.186   0.186   0.187   0.189   0.183   0.185   0.189   0.192   0.193   0.201   0.194   0.197
    94.00    0.191   0.192   0.190   0.191   0.191   0.188   0.186   0.189   0.185   0.193   0.189   0.191   0.189   0.183   0.189   0.192   0.189   0.187   0.189   0.186   0.193   0.193   0.187   0.191   0.199   0.189   0.187   0.186   0.185   0.187   0.186   0.185   0.184   0.183   0.189   0.186   0.182   0.184   0.184   0.181   0.172   0.178   0.178   0.175   0.183   0.189   0.197   0.196   0.191   0.190   0.188   0.195   0.192   0.186   0.179   0.190   0.190   0.189   0.190   0.188   0.191   0.189   0.191   0.187   0.185   0.177   0.182   0.191   0.189   0.191   0.194   0.194   0.191   0.182   0.187   0.192   0.188   0.193   0.193   0.189   0.188   0.184   0.190   0.195   0.195   0.196   0.195   0.195   0.199   0.200   0.191   0.189   0.192   0.192   0.182   0.189   0.188   0.186   0.179   0.178   0.185   0.180   0.177   0.177   0.184   0.176   0.177   0.177   0.179   0.185   0.184   0.181   0.185   0.189   0.186   0.183   0.187   0.185   0.183   0.187   0.184   0.185   0.186   0.186   0.188   0.185   0.183   0.178   0.178   0.185   0.180   0.182   0.187   0.181   0.184   0.190   0.193   0.196   0.194   0.192   0.200   0.199   0.196   0.189   0.194   0.195   0.197   0.196   0.194   0.194   0.194   0.196   0.200   0.197   0.198   0.195   0.196   0.194   0.184   0.186   0.186   0.192   0.197   0.192   0.196   0.197   0.188   0.197   0.196   0.191   0.192   0.190   0.194   0.187   0.190   0.191   0.185   0.179   0.183   0.182   0.186   0.187   0.185   0.186   0.187   0.186   0.186   0.185   0.189   0.194   0.196   0.200   0.197
    84.70    0.188   0.178   0.188   0.186   0.188   0.189   0.191   0.191   0.193   0.189   0.197   0.188   0.189   0.188   0.184   0.189   0.188   0.194   0.192   0.188   0.192   0.195   0.192   0.189   0.196   0.192   0.192   0.178   0.189   0.181   0.183   0.181   0.182   0.181   0.181   0.184   0.185   0.185   0.187   0.182   0.171   0.178   0.179   0.184   0.186   0.188   0.189   0.192   0.195   0.192   0.192   0.191   0.188   0.182   0.180   0.186   0.191   0.190   0.186   0.188   0.188   0.184   0.184   0.190   0.194   0.187   0.187   0.185   0.189   0.185   0.186   0.190   0.184   0.185   0.186   0.190   0.196   0.186   0.191   0.187   0.193   0.190   0.191   0.199   0.197   0.196   0.193   0.190   0.196   0.192   0.199   0.187   0.189   0.187   0.188   0.180   0.186   0.180   0.178   0.180   0.181   0.179   0.177   0.178   0.181   0.181   0.184   0.179   0.179   0.185   0.186   0.187   0.185   0.184   0.186   0.184   0.182   0.180   0.186   0.182   0.180   0.186   0.188   0.191   0.185   0.182   0.181   0.182   0.179   0.180   0.185   0.186   0.183   0.187   0.187   0.190   0.194   0.190   0.192   0.196   0.198   0.197   0.197   0.193   0.195   0.194   0.190   0.197   0.199   0.196   0.196   0.195   0.202   0.204   0.196   0.190   0.193   0.190   0.188   0.187   0.188   0.188   0.195   0.192   0.189   0.198   0.196   0.198   0.195   0.193   0.187   0.190   0.189   0.195   0.200   0.197   0.194   0.191   0.184   0.186   0.193   0.193   0.192   0.190   0.186   0.184   0.182   0.187   0.189   0.197   0.195   0.198   0.197
    75.40    0.189   0.184   0.182   0.176   0.185   0.186   0.189   0.195   0.195   0.194   0.196   0.188   0.183   0.190   0.184   0.195   0.195   0.196   0.191   0.190   0.190   0.192   0.195   0.193   0.197   0.194   0.192   0.187   0.189   0.183   0.185   0.189   0.184   0.180   0.181   0.189   0.185   0.188   0.185   0.183   0.181   0.175   0.176   0.187   0.186   0.190   0.193   0.193   0.194   0.190   0.194   0.185   0.183   0.178   0.185   0.192   0.195   0.194   0.194   0.189   0.193   0.189   0.182   0.187   0.187   0.188   0.184   0.185   0.186   0.180   0.188   0.190   0.187   0.189   0.190   0.195   0.198   0.196   0.189   0.189   0.187   0.193   0.198   0.195   0.194   0.196   0.191   0.190   0.189   0.198   0.193   0.194   0.183   0.175   0.178   0.182   0.189   0.186   0.185   0.181   0.182   0.176   0.176   0.171   0.185   0.184   0.186   0.180   0.177   0.181   0.186   0.183   0.184   0.188   0.179   0.184   0.178   0.178   0.185   0.183   0.186   0.184   0.191   0.192   0.193   0.185   0.183   0.186   0.181   0.187   0.185   0.189   0.184   0.188   0.194   0.195   0.193   0.192   0.195   0.196   0.199   0.191   0.197   0.190   0.193   0.188   0.187   0.192   0.188   0.192   0.197   0.199   0.201   0.198   0.194   0.194   0.189   0.184   0.179   0.185   0.184   0.188   0.188   0.185   0.197   0.196   0.194   0.197   0.198   0.193   0.195   0.189   0.193   0.195   0.189   0.192   0.186   0.190   0.188   0.189   0.194   0.187   0.187   0.188   0.186   0.183   0.185   0.181   0.191   0.193   0.195   0.198   0.199
    66.10    0.185   0.182   0.185   0.179   0.186   0.189   0.193   0.193   0.188   0.194   0.184   0.182   0.184   0.191   0.196   0.193   0.198   0.189   0.190   0.189   0.191   0.192   0.190   0.185   0.190   0.199   0.198   0.196   0.191   0.188   0.189   0.191   0.192   0.187   0.187   0.191   0.188   0.183   0.187   0.179   0.171   0.174   0.178   0.179   0.188   0.190   0.191   0.195   0.196   0.192   0.190   0.180   0.181   0.182   0.192   0.191   0.193   0.191   0.196   0.198   0.194   0.190   0.185   0.193   0.188   0.191   0.189   0.184   0.186   0.187   0.189   0.184   0.187   0.191   0.196   0.194   0.196   0.193   0.193   0.194   0.188   0.195   0.195   0.191   0.194   0.194   0.188   0.194   0.189   0.188   0.190   0.185   0.186   0.186   0.179   0.176   0.182   0.182   0.191   0.191   0.188   0.188   0.180   0.175   0.174   0.183   0.183   0.180   0.185   0.184   0.190   0.181   0.183   0.187   0.184   0.181   0.182   0.179   0.183   0.185   0.184   0.184   0.186   0.188   0.187   0.188   0.182   0.180   0.184   0.190   0.192   0.195   0.190   0.194   0.201   0.197   0.190   0.187   0.193   0.194   0.198   0.195   0.189   0.194   0.191   0.186   0.189   0.188   0.188   0.187   0.196   0.203   0.199   0.197   0.196   0.194   0.191   0.187   0.178   0.186   0.181   0.185   0.182   0.186   0.190   0.195   0.191   0.196   0.194   0.194   0.190   0.188   0.193   0.195   0.190   0.189   0.189   0.183   0.191   0.186   0.188   0.187   0.187   0.188   0.184   0.179   0.188   0.192   0.194   0.191   0.187   0.195   0.199
    56.80    0.184   0.184   0.187   0.183   0.197   0.198   0.192   0.191   0.186   0.188   0.191   0.181   0.179   0.188   0.192   0.200   0.198   0.186   0.187   0.183   0.196   0.187   0.186   0.183   0.193   0.197   0.198   0.189   0.187   0.186   0.194   0.187   0.191   0.188   0.190   0.188   0.185   0.185   0.186   0.178   0.172   0.178   0.177   0.182   0.192   0.190   0.190   0.191   0.190   0.187   0.190   0.187   0.185   0.181   0.187   0.190   0.189   0.195   0.193   0.194   0.196   0.188   0.184   0.188   0.189   0.186   0.186   0.182   0.182   0.183   0.190   0.188   0.192   0.192   0.197   0.193   0.194   0.196   0.195   0.192   0.190   0.192   0.192   0.193   0.196   0.196   0.190   0.193   0.191   0.189   0.193   0.187   0.184   0.193   0.187   0.183   0.177   0.183   0.187   0.186   0.188   0.185   0.183   0.180   0.177   0.185   0.191   0.189   0.185   0.177   0.182   0.183   0.178   0.182   0.188   0.183   0.183   0.183   0.182   0.186   0.186   0.186   0.185   0.190   0.187   0.180   0.185   0.183   0.188   0.184   0.189   0.196   0.193   0.201   0.196   0.191   0.196   0.191   0.192   0.194   0.192   0.192   0.191   0.192   0.188   0.188   0.191   0.185   0.187   0.183   0.194   0.201   0.199   0.192   0.196   0.192   0.194   0.188   0.180   0.182   0.183   0.190   0.185   0.186   0.194   0.185   0.190   0.190   0.196   0.190   0.194   0.188   0.188   0.183   0.187   0.193   0.185   0.188   0.187   0.186   0.187   0.183   0.189   0.182   0.175   0.179   0.187   0.192   0.190   0.191   0.188   0.194   0.195
    47.50    0.190   0.193   0.188   0.189   0.192   0.193   0.186   0.190   0.195   0.189   0.187   0.182   0.183   0.186   0.189   0.195   0.191   0.187   0.185   0.186   0.188   0.189   0.194   0.188   0.193   0.194   0.190   0.185   0.190   0.185   0.186   0.187   0.188   0.182   0.190   0.184   0.180   0.179   0.189   0.187   0.181   0.177   0.184   0.184   0.190   0.192   0.184   0.184   0.195   0.191   0.184   0.182   0.187   0.189   0.189   0.194   0.192   0.192   0.195   0.198   0.196   0.189   0.184   0.180   0.186   0.188   0.186   0.191   0.182   0.187   0.186   0.191   0.188   0.192   0.194   0.192   0.196   0.199   0.195   0.193   0.196   0.189   0.189   0.195   0.194   0.193   0.189   0.193   0.190   0.187   0.186   0.185   0.187   0.187   0.187   0.185   0.185   0.185   0.185   0.182   0.190   0.181   0.186   0.182   0.180   0.178   0.181   0.185   0.189   0.186   0.184   0.182   0.177   0.177   0.183   0.184   0.179   0.184   0.190   0.194   0.191   0.196   0.194   0.190   0.187   0.183   0.181   0.182   0.184   0.184   0.192   0.196   0.192   0.194   0.197   0.194   0.198   0.203   0.197   0.192   0.191   0.196   0.203   0.202   0.194   0.193   0.184   0.189   0.190   0.187   0.192   0.200   0.196   0.194   0.187   0.196   0.190   0.190   0.181   0.182   0.182   0.189   0.191   0.193   0.189   0.181   0.184   0.185   0.186   0.187   0.193   0.184   0.183   0.180   0.188   0.190   0.187   0.186   0.184   0.178   0.186   0.183   0.185   0.182   0.184   0.186   0.192   0.191   0.195   0.195   0.190   0.198   0.194
    38.20    0.198   0.194   0.194   0.186   0.183   0.189   0.191   0.192   0.199   0.194   0.189   0.183   0.179   0.187   0.193   0.193   0.189   0.183   0.182   0.183   0.190   0.200   0.196   0.185   0.192   0.190   0.186   0.186   0.189   0.185   0.183   0.194   0.188   0.188   0.185   0.185   0.183   0.181   0.187   0.192   0.186   0.177   0.178   0.180   0.186   0.186   0.178   0.187   0.188   0.192   0.194   0.192   0.189   0.191   0.189   0.193   0.185   0.185   0.195   0.194   0.190   0.188   0.181   0.186   0.183   0.187   0.191   0.192   0.185   0.185   0.187   0.190   0.195   0.192   0.200   0.193   0.190   0.191   0.194   0.195   0.191   0.188   0.186   0.194   0.195   0.192   0.189   0.198   0.190   0.187   0.184   0.179   0.181   0.181   0.180   0.180   0.185   0.187   0.189   0.185   0.179   0.185   0.190   0.182   0.184   0.189   0.189   0.187   0.187   0.188   0.186   0.184   0.179   0.182   0.187   0.188   0.185   0.188   0.190   0.193   0.184   0.190   0.193   0.185   0.181   0.182   0.179   0.188   0.184   0.194   0.190   0.192   0.198   0.198   0.199   0.197   0.200   0.199   0.197   0.190   0.194   0.198   0.204   0.199   0.194   0.192   0.187   0.188   0.193   0.192   0.194   0.194   0.196   0.189   0.186   0.192   0.191   0.199   0.182   0.182   0.185   0.186   0.189   0.194   0.190   0.189   0.194   0.192   0.195   0.189   0.193   0.189   0.191   0.186   0.182   0.192   0.190   0.184   0.183   0.183   0.186   0.191   0.190   0.184   0.178   0.186   0.190   0.192   0.203   0.190   0.194   0.190   0.189
    28.90    0.202   0.200   0.194   0.195   0.187   0.189   0.190   0.186   0.197   0.197   0.192   0.191   0.184   0.184   0.193   0.191   0.187   0.188   0.181   0.186   0.190   0.196   0.193   0.188   0.190   0.188   0.187   0.190   0.194   0.186   0.184   0.193   0.188   0.194   0.192   0.183   0.184   0.187   0.189   0.188   0.189   0.183   0.178   0.182   0.185   0.185   0.181   0.183   0.186   0.193   0.197   0.198   0.199   0.192   0.185   0.188   0.182   0.186   0.188   0.188   0.188   0.186   0.179   0.184   0.182   0.183   0.187   0.189   0.187   0.190   0.193   0.198   0.190   0.194   0.195   0.195   0.190   0.190   0.187   0.184   0.190   0.189   0.188   0.193   0.188   0.191   0.196   0.198   0.190   0.184   0.182   0.183   0.184   0.182   0.177   0.182   0.187   0.186   0.189   0.187   0.178   0.182   0.185   0.179   0.182   0.192   0.187   0.185   0.183   0.186   0.187   0.188   0.187   0.187   0.190   0.190   0.190   0.184   0.183   0.187   0.180   0.189   0.192   0.188   0.183   0.185   0.182   0.186   0.189   0.192   0.196   0.194   0.196   0.193   0.195   0.197   0.195   0.197   0.194   0.191   0.195   0.196   0.202   0.196   0.195   0.201   0.190   0.192   0.189   0.188   0.188   0.189   0.193   0.196   0.185   0.186   0.196   0.194   0.182   0.187   0.184   0.195   0.193   0.203   0.194   0.189   0.192   0.194   0.195   0.194   0.191   0.193   0.188   0.187   0.180   0.189   0.186   0.188   0.188   0.187   0.181   0.191   0.187   0.188   0.184   0.187   0.191   0.195   0.198   0.192   0.194   0.194   0.193
    19.60    0.195   0.198   0.198   0.194   0.194   0.191   0.192   0.193   0.194   0.200   0.193   0.191   0.187   0.183   0.185   0.185   0.193   0.188   0.193   0.189   0.193   0.190   0.192   0.191   0.195   0.192   0.189   0.186   0.189   0.191   0.186   0.192   0.192   0.188   0.187   0.184   0.180   0.186   0.184   0.182   0.184   0.189   0.190   0.193   0.190   0.189   0.184   0.183   0.193   0.199   0.197   0.196   0.198   0.193   0.190   0.185   0.185   0.191   0.190   0.181   0.181   0.181   0.183   0.175   0.187   0.187   0.185   0.186   0.194   0.196   0.192   0.186   0.185   0.195   0.195   0.196   0.193   0.188   0.182   0.186   0.187   0.182   0.192   0.184   0.192   0.192   0.197   0.195   0.191   0.187   0.184   0.182   0.182   0.182   0.184   0.183   0.187   0.184   0.189   0.181   0.185   0.187   0.187   0.190   0.191   0.193   0.191   0.197   0.190   0.191   0.189   0.190   0.191   0.192   0.194   0.186   0.185   0.181   0.179   0.184   0.186   0.183   0.186   0.184   0.187   0.190   0.185   0.183   0.184   0.192   0.199   0.201   0.198   0.197   0.196   0.198   0.199   0.197   0.206   0.197   0.196   0.196   0.191   0.193   0.199   0.203   0.194   0.189   0.187   0.192   0.194   0.194   0.187   0.195   0.192   0.193   0.194   0.194   0.192   0.190   0.189   0.193   0.195   0.205   0.204   0.201   0.199   0.190   0.186   0.189   0.191   0.189   0.193   0.187   0.180   0.188   0.189   0.189   0.190   0.180   0.182   0.184   0.188   0.189   0.191   0.196   0.195   0.193   0.189   0.192   0.195   0.194   0.190
    10.30    0.192   0.196   0.195   0.194   0.194   0.194   0.187   0.192   0.196   0.199   0.193   0.188   0.189   0.191   0.192   0.189   0.191   0.193   0.194   0.197   0.194   0.198   0.197   0.189   0.190   0.197   0.190   0.188   0.188   0.182   0.193   0.194   0.199   0.197   0.191   0.191   0.187   0.192   0.188   0.187   0.188   0.190   0.191   0.191   0.194   0.196   0.194   0.191   0.194   0.197   0.189   0.195   0.191   0.191   0.193   0.193   0.189   0.192   0.191   0.191   0.183   0.179   0.178   0.183   0.184   0.187   0.187   0.186   0.189   0.195   0.191   0.192   0.192   0.199   0.200   0.193   0.190   0.187   0.182   0.186   0.189   0.184   0.184   0.179   0.191   0.193   0.195   0.197   0.196   0.187   0.184   0.184   0.183   0.184   0.183   0.183   0.190   0.182   0.187   0.191   0.183   0.189   0.189   0.190   0.192   0.187   0.189   0.199   0.196   0.196   0.191   0.189   0.188   0.184   0.192   0.190   0.180   0.177   0.179   0.184   0.188   0.185   0.183   0.182   0.185   0.175   0.182   0.187   0.193   0.197   0.200   0.203   0.197   0.200   0.205   0.202   0.198   0.198   0.200   0.201   0.192   0.189   0.197   0.199   0.196   0.197   0.198   0.193   0.187   0.190   0.197   0.193   0.190   0.192   0.193   0.188   0.197   0.199   0.192   0.196   0.193   0.189   0.194   0.201   0.199   0.194   0.192   0.186   0.184   0.188   0.188   0.188   0.186   0.188   0.189   0.186   0.192   0.187   0.182   0.180   0.190   0.191   0.190   0.188   0.197   0.192   0.189   0.191   0.190   0.192   0.198   0.194   0.193
     1.00    0.190   0.189   0.197   0.195   0.196   0.190   0.185   0.188   0.191   0.189   0.193   0.190   0.188   0.192   0.193   0.190   0.192   0.191   0.195   0.192   0.193   0.194   0.194   0.192   0.192   0.190   0.187   0.186   0.189   0.185   0.181   0.190   0.191   0.196   0.191   0.187   0.183   0.192   0.192   0.187   0.190   0.187   0.191   0.192   0.192   0.191   0.192   0.194   0.192   0.192   0.193   0.187   0.188   0.188   0.187   0.187   0.187   0.187   0.198   0.195   0.189   0.179   0.181   0.185   0.192   0.187   0.189   0.189   0.189   0.193   0.193   0.191   0.196   0.197   0.199   0.193   0.190   0.189   0.189   0.191   0.188   0.191   0.181   0.177   0.188   0.190   0.193   0.196   0.192   0.182   0.185   0.191   0.180   0.182   0.189   0.184   0.191   0.182   0.182   0.186   0.185   0.188   0.192   0.192   0.186   0.192   0.194   0.195   0.190   0.185   0.183   0.184   0.191   0.182   0.183   0.185   0.185   0.185   0.179   0.183   0.187   0.189   0.186   0.190   0.187   0.181   0.178   0.176   0.186   0.193   0.192   0.196   0.188   0.194   0.197   0.193   0.193   0.198   0.193   0.192   0.194   0.192   0.198   0.202   0.189   0.194   0.196   0.191   0.192   0.196   0.198   0.195   0.190   0.195   0.190   0.196   0.190   0.199   0.199   0.195   0.189   0.194   0.200   0.196   0.192   0.193   0.184   0.181   0.186   0.191   0.184   0.186   0.191   0.188   0.191   0.185   0.187   0.187   0.189   0.189   0.183   0.183   0.190   0.194   0.192   0.187   0.184   0.189   0.192   0.192   0.198   0.195   0.195

   Mean standard deviation across all grid points:
      u component:    0.380 m/s
      v component:    0.305 m/s
      w component:    0.188 m/s


U-component (X) statistics from the interpolated hub point:

   Mean =   9.7063 m/s
   TI   =   4.1710 %


Processing complete.  2.10784E+05 CPU seconds used.
