
This summary file was generated by TurbSim (from OpenFAST-v3.5.3) on 20-Apr-2025 at 05:36:07.


Runtime Options:

**********  Random seed #1
    RANLUX  Type of random number generator
         F  Output binary HH turbulence parameters?
         F  Output formatted turbulence parameters?
         F  Output AeroDyn HH files?
         T  Output AeroDyn FF files?
         F  Output BLADED FF files?
         F  Output tower data?
         F  Output HAWC FF files?
         F  Output formatted FF files?
         T  Output coherent turbulence time step file?
 0 -  NONE  IEC turbulence models scaled to exact specified standard deviation


Turbine/Model Specifications:

        37  Vertical grid-point matrix dimension
        35  Horizontal grid-point matrix dimension
     0.250  Time step [seconds]
   900.000  Analysis time [seconds]
   900.000  Usable output time [seconds]
    89.350  Hub height [m]
   167.400  Grid height [m]
   158.100  Grid width [m]
     0.000  Vertical flow angle [degrees]
     0.000  Horizontal flow angle [degrees]


Meteorological Boundary Conditions:

    TIMESR  User-input time series spectral model
       N/A  IEC standard
       N/A  IEC turbulence characteristic
       N/A  IEC turbulence type
       N/A  IEC Extreme Turbulence Model (ETM) "c" parameter [m/s]
       PL   Wind profile type
    90.000  Reference height [m]
    10.000  Reference wind speed [m/s]
       N/A  Jet height [m]
     0.120  Power law exponent
     0.030  Surface roughness length [m]


Non-IEC Meteorological Boundary Conditions:

    45.000  Site latitude [degrees]
     0.050  Gradient Richardson number
     0.480  Friction or shear velocity [m/s]
       N/A  Mixing layer depth [m]
       N/A  Mean hub u'w' Reynolds stress
       N/A  Mean hub u'v' Reynolds stress
       N/A  Mean hub v'w' Reynolds stress


Spatial Coherence Models:

       IEC  u-component coherence model
       IEC  v-component coherence model
       IEC  w-component coherence model
(   12.000, 0.353E-03)  u-component coherence parameters
(   12.000, 0.353E-03)  v-component coherence parameters
(   12.000, 0.353E-03)  w-component coherence parameters
       N/A  Coherence exponent


Coherent Turbulence Scaling Parameters:

.\EventData
            Name of the path containing the coherent turbulence data files
       dns  Type of coherent turbulence data files
     1.000  Disturbance scale (ratio of wave height to rotor diameter)
     0.500  Fractional location of tower centerline from right
     0.500  Fractional location of hub height from the bottom of the dataset
    30.000  Minimum start time for coherent structures [seconds]


Profiles from User-Defined Time-Series Input:

  Height   Wind Speed   Horizontal Angle   Vertical Angle
   (m)        (m/s)          (deg)              (deg)    
  ------   ----------   ----------------   --------------
   94.00      10.00          -0.63                0.00


You have requested that the following file(s) be generated:

   /kfs3/scratch/agupta/Projects/RL_Incubator/FinalRuns_Veer/Seed4/./FFSim_Seed4/Cond00_v10.0_PL0.12_TI6.0/Case1_wdirp02/Seed_3/TurbSim/HighT14.bts (AeroDyn/TurbSim full-field wind file)


Turbulence Simulation Scaling Parameter Summary:

   Turbulence model used                            =  User-input time series
   Gradient Richardson number                       =    0.050
   Monin-Obukhov (M-O) z/L parameter                =    0.067
   Monin-Obukhov (M-O) length scale                 = 1340.250 m
   Mean wind speed at hub height                    =    9.991 m/s

   Wind profile type                                =  Power law
   Power law exponent                               =    0.120
   Mean shear across rotor disk                     =    0.019 (m/s)/m
   Assumed rotor diameter                           =  158.100 m
   Surface roughness length                         =    0.030 m

   Nyquist frequency of turbulent wind field        =    2.000 Hz

   Number of time steps in the FFT                  =     3600
   Number of time steps output                      =     3600
   Number of points simulated                       =     1296


Mean Flow Angles:

   Vertical   =   0.0 degrees
   Horizontal =   0.0 degrees

Mean Wind Speed Profile:

   Height    Wind Speed   Horizontal Angle  Vertical Angle  U-comp (X)   V-comp (Y)   W-comp (Z)
     (m)        (m/s)         (degrees)       (degrees)       (m/s)        (m/s)        (m/s)   
   ------    ----------   ----------------  --------------  ----------   ----------   ----------
    168.4       10.78            0.00            0.00         10.78         0.00         0.00
    163.7       10.74            0.00            0.00         10.74         0.00         0.00
    159.1       10.71            0.00            0.00         10.71         0.00         0.00
    154.4       10.67            0.00            0.00         10.67         0.00         0.00
    149.8       10.63            0.00            0.00         10.63         0.00         0.00
    145.1       10.59            0.00            0.00         10.59         0.00         0.00
    140.5       10.55            0.00            0.00         10.55         0.00         0.00
    135.8       10.51            0.00            0.00         10.51         0.00         0.00
    131.2       10.46            0.00            0.00         10.46         0.00         0.00
    126.5       10.42            0.00            0.00         10.42         0.00         0.00
    121.9       10.37            0.00            0.00         10.37         0.00         0.00
    117.2       10.32            0.00            0.00         10.32         0.00         0.00
    112.6       10.27            0.00            0.00         10.27         0.00         0.00
    107.9       10.22            0.00            0.00         10.22         0.00         0.00
    103.3       10.17            0.00            0.00         10.17         0.00         0.00
     98.6       10.11            0.00            0.00         10.11         0.00         0.00
     94.0       10.05            0.00            0.00         10.05         0.00         0.00
     89.3        9.99            0.00            0.00          9.99         0.00         0.00
     84.7        9.93            0.00            0.00          9.93         0.00         0.00
     80.0        9.86            0.00            0.00          9.86         0.00         0.00
     75.4        9.79            0.00            0.00          9.79         0.00         0.00
     70.7        9.72            0.00            0.00          9.72         0.00         0.00
     66.1        9.64            0.00            0.00          9.64         0.00         0.00
     61.4        9.55            0.00            0.00          9.55         0.00         0.00
     56.8        9.46            0.00            0.00          9.46         0.00         0.00
     52.1        9.37            0.00            0.00          9.37         0.00         0.00
     47.5        9.26            0.00            0.00          9.26         0.00         0.00
     42.8        9.15            0.00            0.00          9.15         0.00         0.00
     38.2        9.02            0.00            0.00          9.02         0.00         0.00
     33.5        8.88            0.00            0.00          8.88         0.00         0.00
     28.9        8.73            0.00            0.00          8.73         0.00         0.00
     24.2        8.54            0.00            0.00          8.54         0.00         0.00
     19.6        8.33            0.00            0.00          8.33         0.00         0.00
     14.9        8.06            0.00            0.00          8.06         0.00         0.00
     10.3        7.71            0.00            0.00          7.71         0.00         0.00
      5.6        7.17            0.00            0.00          7.17         0.00         0.00
      1.0        5.83            0.00            0.00          5.83         0.00         0.00


Harvested Random Seeds after Generation of the Random Numbers:

     65026800 K 1
            0 K 2


Hub-Height Simulated Turbulence Statistical Summary:

   Type of Wind        Min (m/s)   Mean (m/s)    Max (m/s)  Sigma (m/s)       TI (%)
   ----------------    ---------   ----------    ---------  -----------       ------
   Longitudinal (u)         8.10         9.99        11.69        0.555        5.557
   Lateral (v)             -1.77        -0.00         1.78        0.450        4.507
   Vertical (w)            -0.97         0.00         1.11        0.299        2.992
   U component              8.10         9.99        11.69        0.555        5.557
   V component             -1.77        -0.00         1.78        0.450        4.507
   W component             -0.97         0.00         1.11        0.299        2.992
   Horizontal (U&V)         8.12        10.00        11.69        0.556        5.555
   Total                    8.12        10.01        11.69        0.555        5.550

                       Min Reynolds     Mean Reynolds    Max Reynolds    Correlation
   Product             Stress (m/s)^2   Stress (m/s)^2   Stress (m/s)^2  Coefficient
   ----------------    --------------   --------------   --------------  -----------
   u'w'                     -0.953             0.003             0.812         0.018
   u'v'                     -1.137             0.022             2.142         0.089
   v'w'                     -0.840             0.008             0.863         0.063


   Friction Velocity (Ustar)  =      0.054 m/s
   Maximum Instantaneous TKE  =      2.289 (m/s)^2
   Maximum Instantaneous CTKE =      1.086 (m/s)^2


Grid Point Variance Summary:

   Y-coord  -79.05  -74.40  -69.75  -65.10  -60.45  -55.80  -51.15  -46.50  -41.85  -37.20  -32.55  -27.90  -23.25  -18.60  -13.95   -9.30   -4.65    0.00    4.65    9.30   13.95   18.60   23.25   27.90   32.55   37.20   41.85   46.50   51.15   55.80   60.45   65.10   69.75   74.40   79.05

   Height   Standard deviation at grid points for the u component:
   168.40    0.553   0.538   0.540   0.564   0.582   0.556   0.542   0.506   0.513   0.502   0.543   0.554   0.583   0.566   0.599   0.599   0.591   0.554   0.541   0.574   0.595   0.575   0.575   0.582   0.562   0.543   0.535   0.578   0.588   0.554   0.548   0.544   0.586   0.591   0.565
   163.75    0.544   0.587   0.580   0.614   0.575   0.577   0.525   0.513   0.505   0.538   0.528   0.558   0.605   0.600   0.572   0.593   0.592   0.576   0.578   0.597   0.616   0.620   0.632   0.583   0.611   0.567   0.554   0.567   0.601   0.597   0.578   0.537   0.605   0.583   0.572
   159.10    0.566   0.574   0.591   0.600   0.574   0.603   0.570   0.564   0.537   0.534   0.556   0.562   0.634   0.612   0.615   0.586   0.588   0.563   0.563   0.610   0.576   0.597   0.618   0.617   0.551   0.543   0.552   0.524   0.551   0.557   0.556   0.579   0.572   0.601   0.564
   154.45    0.527   0.580   0.572   0.623   0.628   0.620   0.596   0.587   0.535   0.583   0.567   0.596   0.653   0.614   0.581   0.558   0.552   0.574   0.558   0.563   0.569   0.575   0.612   0.571   0.545   0.491   0.496   0.523   0.495   0.523   0.574   0.598   0.592   0.589   0.571
   149.80    0.581   0.583   0.561   0.582   0.590   0.586   0.566   0.553   0.557   0.591   0.580   0.572   0.613   0.626   0.588   0.561   0.570   0.577   0.579   0.580   0.541   0.563   0.571   0.574   0.556   0.466   0.461   0.459   0.515   0.492   0.530   0.552   0.562   0.525   0.545
   145.15    0.595   0.583   0.585   0.622   0.631   0.614   0.616   0.591   0.604   0.614   0.589   0.575   0.606   0.600   0.585   0.595   0.570   0.586   0.549   0.560   0.565   0.541   0.559   0.566   0.529   0.476   0.465   0.454   0.464   0.517   0.527   0.566   0.548   0.537   0.585
   140.50    0.577   0.595   0.584   0.573   0.594   0.597   0.630   0.651   0.624   0.607   0.594   0.570   0.588   0.599   0.549   0.575   0.559   0.602   0.573   0.577   0.571   0.560   0.553   0.544   0.531   0.484   0.468   0.457   0.474   0.550   0.542   0.541   0.575   0.533   0.536
   135.85    0.573   0.549   0.532   0.511   0.534   0.565   0.630   0.614   0.646   0.638   0.657   0.646   0.627   0.579   0.618   0.595   0.617   0.640   0.641   0.579   0.535   0.535   0.529   0.495   0.491   0.476   0.466   0.472   0.496   0.525   0.568   0.552   0.541   0.534   0.551
   131.20    0.549   0.528   0.530   0.494   0.491   0.552   0.617   0.623   0.664   0.670   0.618   0.617   0.569   0.606   0.618   0.637   0.649   0.622   0.590   0.577   0.550   0.523   0.542   0.488   0.501   0.491   0.488   0.500   0.520   0.494   0.518   0.515   0.514   0.533   0.544
   126.55    0.511   0.517   0.479   0.489   0.491   0.584   0.629   0.625   0.661   0.617   0.607   0.604   0.611   0.612   0.614   0.583   0.592   0.605   0.578   0.570   0.579   0.557   0.551   0.545   0.519   0.530   0.500   0.469   0.507   0.526   0.503   0.523   0.516   0.527   0.519
   121.90    0.530   0.514   0.506   0.494   0.507   0.564   0.605   0.607   0.606   0.578   0.619   0.590   0.584   0.627   0.588   0.570   0.553   0.542   0.534   0.595   0.578   0.555   0.583   0.523   0.538   0.526   0.513   0.505   0.502   0.483   0.467   0.497   0.484   0.483   0.483
   117.25    0.525   0.524   0.504   0.500   0.532   0.570   0.572   0.571   0.574   0.580   0.577   0.554   0.608   0.583   0.589   0.535   0.530   0.567   0.572   0.579   0.618   0.581   0.606   0.568   0.559   0.541   0.513   0.492   0.507   0.483   0.484   0.478   0.482   0.467   0.470
   112.60    0.521   0.542   0.495   0.534   0.529   0.520   0.576   0.608   0.587   0.615   0.619   0.601   0.619   0.604   0.594   0.565   0.543   0.559   0.540   0.592   0.606   0.618   0.573   0.532   0.525   0.506   0.471   0.457   0.488   0.467   0.458   0.465   0.478   0.483   0.487
   107.95    0.491   0.500   0.536   0.566   0.540   0.546   0.534   0.583   0.565   0.583   0.592   0.571   0.579   0.564   0.587   0.583   0.612   0.572   0.533   0.552   0.584   0.622   0.528   0.564   0.527   0.463   0.491   0.470   0.465   0.433   0.458   0.414   0.426   0.450   0.425
   103.30    0.472   0.505   0.513   0.582   0.522   0.492   0.515   0.535   0.554   0.529   0.541   0.564   0.529   0.550   0.579   0.645   0.635   0.576   0.529   0.565   0.566   0.557   0.546   0.500   0.499   0.456   0.462   0.459   0.439   0.441   0.426   0.458   0.441   0.410   0.453
    98.65    0.497   0.505   0.534   0.535   0.532   0.473   0.495   0.496   0.515   0.523   0.538   0.521   0.528   0.510   0.577   0.612   0.616   0.588   0.533   0.551   0.579   0.551   0.522   0.522   0.505   0.488   0.452   0.447   0.430   0.404   0.423   0.449   0.468   0.431   0.482
    94.00    0.505   0.500   0.554   0.526   0.494   0.481   0.513   0.562   0.534   0.503   0.501   0.546   0.537   0.552   0.559   0.608   0.582   0.581   0.544   0.545   0.560   0.564   0.513   0.553   0.508   0.463   0.477   0.476   0.455   0.464   0.461   0.419   0.450   0.498   0.491
    89.35    0.507   0.536   0.526   0.517   0.508   0.488   0.531   0.551   0.535   0.533   0.540   0.548   0.542   0.590   0.575   0.565   0.554   0.555   0.570   0.584   0.548   0.547   0.552   0.558   0.544   0.489   0.455   0.448   0.460   0.467   0.477   0.432   0.476   0.502   0.514
    84.70    0.512   0.512   0.496   0.474   0.476   0.495   0.520   0.566   0.535   0.574   0.538   0.568   0.587   0.610   0.574   0.541   0.563   0.527   0.527   0.582   0.547   0.593   0.582   0.552   0.565   0.488   0.458   0.465   0.426   0.488   0.500   0.495   0.498   0.509   0.475
    80.05    0.510   0.520   0.499   0.474   0.448   0.483   0.477   0.531   0.567   0.546   0.583   0.588   0.591   0.595   0.584   0.558   0.574   0.544   0.487   0.561   0.552   0.555   0.534   0.535   0.531   0.521   0.486   0.513   0.465   0.497   0.486   0.519   0.531   0.517   0.520
    75.40    0.538   0.532   0.523   0.490   0.481   0.465   0.479   0.509   0.556   0.559   0.570   0.593   0.566   0.573   0.547   0.572   0.558   0.568   0.548   0.545   0.580   0.542   0.518   0.485   0.470   0.508   0.513   0.483   0.466   0.484   0.509   0.527   0.519   0.536   0.537
    70.75    0.530   0.518   0.494   0.516   0.505   0.483   0.496   0.472   0.527   0.530   0.523   0.541   0.535   0.552   0.567   0.537   0.539   0.566   0.540   0.551   0.559   0.545   0.545   0.490   0.511   0.476   0.482   0.490   0.468   0.511   0.514   0.531   0.559   0.525   0.573
    66.10    0.516   0.510   0.522   0.529   0.544   0.502   0.463   0.490   0.495   0.482   0.505   0.498   0.539   0.577   0.570   0.552   0.559   0.575   0.568   0.561   0.575   0.568   0.545   0.523   0.512   0.499   0.489   0.477   0.499   0.485   0.529   0.577   0.605   0.559   0.583
    61.45    0.508   0.464   0.499   0.500   0.529   0.485   0.442   0.482   0.492   0.473   0.475   0.458   0.525   0.577   0.561   0.554   0.538   0.581   0.554   0.561   0.531   0.545   0.552   0.565   0.524   0.531   0.509   0.518   0.523   0.524   0.596   0.611   0.644   0.631   0.550
    56.80    0.490   0.471   0.493   0.525   0.502   0.506   0.488   0.465   0.495   0.452   0.485   0.494   0.503   0.524   0.528   0.538   0.514   0.535   0.522   0.509   0.505   0.531   0.540   0.583   0.560   0.567   0.561   0.512   0.515   0.534   0.530   0.608   0.617   0.585   0.544
    52.15    0.473   0.471   0.488   0.500   0.514   0.498   0.515   0.531   0.473   0.477   0.486   0.457   0.512   0.535   0.498   0.504   0.511   0.482   0.475   0.502   0.503   0.527   0.532   0.531   0.508   0.531   0.554   0.548   0.539   0.553   0.552   0.574   0.558   0.579   0.558
    47.50    0.459   0.453   0.456   0.498   0.510   0.500   0.545   0.527   0.514   0.482   0.480   0.506   0.497   0.504   0.472   0.486   0.465   0.458   0.458   0.475   0.488   0.514   0.486   0.526   0.522   0.497   0.510   0.519   0.512   0.557   0.591   0.555   0.508   0.524   0.556
    42.85    0.495   0.469   0.480   0.484   0.487   0.518   0.538   0.511   0.508   0.537   0.514   0.493   0.478   0.476   0.461   0.474   0.468   0.452   0.472   0.489   0.510   0.506   0.468   0.485   0.502   0.503   0.495   0.542   0.522   0.554   0.567   0.523   0.501   0.505   0.480
    38.20    0.510   0.493   0.490   0.493   0.493   0.512   0.587   0.549   0.514   0.522   0.502   0.494   0.469   0.473   0.440   0.455   0.484   0.475   0.544   0.522   0.541   0.510   0.494   0.496   0.527   0.527   0.499   0.513   0.508   0.532   0.571   0.538   0.562   0.534   0.499
    33.55    0.502   0.497   0.478   0.493   0.477   0.537   0.578   0.559   0.515   0.502   0.486   0.461   0.481   0.460   0.436   0.465   0.509   0.526   0.540   0.540   0.544   0.533   0.504   0.483   0.500   0.544   0.515   0.518   0.532   0.547   0.550   0.506   0.588   0.529   0.555
    28.90    0.514   0.492   0.462   0.502   0.504   0.530   0.530   0.541   0.542   0.499   0.471   0.453   0.481   0.482   0.441   0.458   0.478   0.480   0.542   0.555   0.523   0.481   0.470   0.492   0.524   0.512   0.533   0.524   0.548   0.554   0.529   0.560   0.561   0.559   0.605
    24.25    0.500   0.498   0.495   0.503   0.566   0.507   0.507   0.542   0.531   0.508   0.470   0.495   0.459   0.475   0.487   0.452   0.462   0.497   0.523   0.569   0.545   0.516   0.500   0.497   0.528   0.554   0.549   0.556   0.587   0.540   0.545   0.555   0.540   0.580   0.556
    19.60    0.496   0.467   0.483   0.503   0.538   0.528   0.546   0.508   0.517   0.516   0.516   0.466   0.458   0.481   0.468   0.462   0.507   0.529   0.531   0.525   0.560   0.547   0.508   0.486   0.481   0.577   0.582   0.592   0.565   0.505   0.540   0.543   0.533   0.554   0.560
    14.95    0.530   0.495   0.494   0.492   0.565   0.569   0.541   0.504   0.525   0.489   0.497   0.472   0.472   0.457   0.474   0.514   0.527   0.535   0.530   0.537   0.549   0.546   0.493   0.460   0.526   0.565   0.570   0.604   0.585   0.549   0.538   0.554   0.545   0.555   0.518
    10.30    0.532   0.495   0.493   0.571   0.594   0.625   0.594   0.563   0.524   0.485   0.515   0.484   0.467   0.478   0.491   0.441   0.506   0.539   0.560   0.547   0.531   0.518   0.465   0.474   0.537   0.568   0.583   0.591   0.581   0.599   0.594   0.555   0.525   0.519   0.513
     5.65    0.563   0.503   0.480   0.581   0.621   0.627   0.628   0.583   0.549   0.480   0.477   0.464   0.462   0.461   0.479   0.468   0.487   0.542   0.552   0.563   0.490   0.504   0.475   0.455   0.527   0.532   0.563   0.586   0.612   0.597   0.589   0.527   0.526   0.491   0.525
     1.00    0.535   0.549   0.545   0.570   0.611   0.598   0.624   0.605   0.578   0.511   0.494   0.464   0.458   0.473   0.457   0.460   0.500   0.534   0.532   0.540   0.529   0.515   0.484   0.478   0.525   0.541   0.540   0.574   0.593   0.578   0.574   0.535   0.543   0.513   0.471

   Height   Standard deviation at grid points for the v component:
   168.40    0.422   0.431   0.431   0.441   0.440   0.457   0.459   0.490   0.472   0.496   0.484   0.472   0.468   0.469   0.477   0.451   0.451   0.456   0.477   0.473   0.445   0.435   0.429   0.409   0.419   0.424   0.452   0.466   0.471   0.500   0.484   0.464   0.454   0.462   0.462
   163.75    0.427   0.410   0.421   0.425   0.425   0.447   0.462   0.483   0.486   0.506   0.490   0.482   0.483   0.477   0.469   0.478   0.481   0.458   0.483   0.472   0.471   0.458   0.436   0.435   0.417   0.426   0.440   0.475   0.511   0.491   0.465   0.449   0.442   0.458   0.468
   159.10    0.426   0.416   0.427   0.430   0.425   0.447   0.472   0.475   0.491   0.491   0.496   0.496   0.479   0.467   0.480   0.481   0.497   0.488   0.464   0.463   0.456   0.449   0.448   0.458   0.438   0.416   0.461   0.496   0.505   0.494   0.463   0.442   0.445   0.467   0.450
   154.45    0.432   0.428   0.449   0.454   0.457   0.454   0.482   0.492   0.498   0.492   0.482   0.479   0.474   0.475   0.491   0.507   0.492   0.488   0.488   0.460   0.464   0.451   0.455   0.457   0.431   0.450   0.478   0.495   0.493   0.495   0.465   0.450   0.445   0.449   0.449
   149.80    0.453   0.438   0.438   0.466   0.468   0.498   0.485   0.496   0.497   0.493   0.458   0.487   0.478   0.474   0.488   0.500   0.519   0.491   0.481   0.479   0.484   0.467   0.449   0.458   0.443   0.460   0.457   0.461   0.468   0.472   0.462   0.440   0.434   0.443   0.448
   145.15    0.462   0.454   0.449   0.451   0.484   0.475   0.482   0.493   0.499   0.474   0.477   0.480   0.462   0.486   0.472   0.495   0.501   0.501   0.487   0.469   0.470   0.467   0.448   0.472   0.450   0.461   0.469   0.460   0.468   0.475   0.460   0.455   0.432   0.438   0.422
   140.50    0.485   0.462   0.463   0.471   0.472   0.445   0.459   0.480   0.504   0.507   0.482   0.466   0.471   0.492   0.492   0.521   0.511   0.495   0.464   0.489   0.475   0.456   0.468   0.453   0.470   0.458   0.504   0.478   0.462   0.461   0.469   0.474   0.432   0.454   0.429
   135.85    0.460   0.466   0.491   0.465   0.451   0.450   0.453   0.461   0.480   0.483   0.469   0.480   0.486   0.505   0.510   0.513   0.512   0.483   0.468   0.474   0.448   0.461   0.480   0.455   0.476   0.479   0.506   0.455   0.448   0.465   0.454   0.468   0.465   0.427   0.412
   131.20    0.455   0.486   0.476   0.481   0.451   0.429   0.456   0.453   0.450   0.461   0.472   0.471   0.503   0.512   0.505   0.501   0.500   0.470   0.491   0.475   0.483   0.465   0.473   0.475   0.450   0.465   0.470   0.470   0.451   0.458   0.467   0.460   0.450   0.424   0.429
   126.55    0.465   0.484   0.482   0.489   0.465   0.442   0.441   0.433   0.435   0.452   0.459   0.468   0.480   0.480   0.489   0.497   0.485   0.480   0.485   0.483   0.481   0.469   0.464   0.469   0.454   0.457   0.488   0.502   0.499   0.485   0.469   0.445   0.444   0.443   0.447
   121.90    0.466   0.443   0.453   0.463   0.437   0.430   0.424   0.431   0.431   0.427   0.449   0.450   0.457   0.467   0.478   0.479   0.487   0.493   0.476   0.479   0.475   0.448   0.449   0.448   0.433   0.463   0.490   0.475   0.499   0.481   0.452   0.453   0.464   0.439   0.450
   117.25    0.455   0.451   0.443   0.456   0.440   0.437   0.435   0.439   0.435   0.429   0.447   0.444   0.461   0.472   0.466   0.466   0.464   0.470   0.465   0.468   0.464   0.442   0.440   0.465   0.436   0.446   0.474   0.468   0.498   0.486   0.475   0.460   0.471   0.445   0.425
   112.60    0.458   0.458   0.455   0.463   0.444   0.420   0.427   0.425   0.432   0.449   0.447   0.451   0.464   0.464   0.458   0.458   0.458   0.456   0.473   0.475   0.463   0.466   0.441   0.436   0.456   0.443   0.471   0.489   0.490   0.491   0.494   0.479   0.471   0.452   0.437
   107.95    0.470   0.452   0.452   0.459   0.466   0.461   0.421   0.421   0.425   0.425   0.438   0.444   0.436   0.441   0.479   0.464   0.451   0.467   0.486   0.441   0.462   0.455   0.447   0.453   0.457   0.477   0.466   0.475   0.506   0.512   0.491   0.483   0.462   0.462   0.440
   103.30    0.462   0.452   0.446   0.470   0.474   0.465   0.444   0.440   0.427   0.447   0.426   0.436   0.450   0.444   0.438   0.454   0.444   0.452   0.471   0.471   0.455   0.446   0.442   0.444   0.455   0.465   0.480   0.486   0.492   0.510   0.493   0.495   0.454   0.454   0.441
    98.65    0.467   0.471   0.453   0.475   0.465   0.465   0.444   0.424   0.419   0.422   0.423   0.447   0.439   0.449   0.458   0.458   0.451   0.442   0.441   0.459   0.439   0.413   0.423   0.416   0.431   0.450   0.445   0.468   0.507   0.489   0.489   0.505   0.482   0.464   0.464
    94.00    0.468   0.465   0.463   0.466   0.469   0.467   0.448   0.432   0.421   0.426   0.436   0.431   0.449   0.437   0.453   0.446   0.454   0.438   0.425   0.431   0.412   0.427   0.408   0.417   0.434   0.453   0.452   0.486   0.501   0.476   0.503   0.509   0.491   0.492   0.490
    89.35    0.448   0.463   0.444   0.420   0.448   0.458   0.455   0.438   0.419   0.426   0.437   0.443   0.442   0.445   0.441   0.454   0.443   0.450   0.436   0.405   0.411   0.429   0.425   0.426   0.412   0.440   0.461   0.477   0.485   0.467   0.499   0.506   0.485   0.495   0.485
    84.70    0.417   0.441   0.427   0.413   0.437   0.457   0.462   0.461   0.450   0.424   0.446   0.441   0.430   0.445   0.438   0.442   0.437   0.453   0.442   0.426   0.408   0.409   0.423   0.427   0.435   0.437   0.450   0.463   0.462   0.491   0.470   0.488   0.494   0.471   0.496
    80.05    0.425   0.429   0.401   0.410   0.430   0.434   0.439   0.451   0.444   0.430   0.415   0.441   0.458   0.459   0.450   0.447   0.437   0.437   0.456   0.442   0.415   0.419   0.427   0.413   0.418   0.427   0.425   0.455   0.469   0.474   0.485   0.501   0.490   0.524   0.513
    75.40    0.410   0.423   0.412   0.427   0.422   0.427   0.436   0.452   0.436   0.426   0.423   0.429   0.455   0.433   0.436   0.441   0.436   0.425   0.448   0.449   0.425   0.431   0.422   0.398   0.408   0.387   0.432   0.449   0.452   0.480   0.501   0.505   0.486   0.489   0.506
    70.75    0.411   0.421   0.412   0.405   0.422   0.435   0.428   0.450   0.443   0.411   0.418   0.422   0.432   0.446   0.434   0.422   0.429   0.428   0.419   0.418   0.427   0.422   0.412   0.395   0.407   0.404   0.437   0.451   0.483   0.467   0.489   0.489   0.494   0.502   0.488
    66.10    0.407   0.399   0.398   0.405   0.395   0.416   0.413   0.425   0.446   0.424   0.409   0.418   0.429   0.426   0.422   0.423   0.426   0.436   0.433   0.417   0.436   0.408   0.415   0.409   0.398   0.406   0.424   0.449   0.464   0.458   0.453   0.450   0.476   0.475   0.477
    61.45    0.405   0.398   0.388   0.403   0.398   0.401   0.405   0.420   0.420   0.435   0.429   0.432   0.423   0.402   0.428   0.420   0.430   0.421   0.424   0.432   0.410   0.434   0.423   0.398   0.386   0.404   0.436   0.444   0.459   0.451   0.460   0.468   0.476   0.457   0.456
    56.80    0.404   0.409   0.409   0.410   0.400   0.400   0.415   0.431   0.430   0.432   0.445   0.451   0.434   0.429   0.424   0.441   0.433   0.416   0.413   0.418   0.416   0.424   0.418   0.416   0.405   0.421   0.426   0.440   0.429   0.444   0.451   0.472   0.476   0.470   0.460
    52.15    0.409   0.403   0.409   0.415   0.430   0.417   0.413   0.432   0.437   0.448   0.462   0.431   0.452   0.447   0.448   0.431   0.415   0.419   0.414   0.429   0.413   0.416   0.418   0.422   0.440   0.436   0.434   0.430   0.410   0.408   0.433   0.462   0.450   0.461   0.449
    47.50    0.415   0.416   0.430   0.421   0.443   0.428   0.437   0.424   0.450   0.441   0.466   0.467   0.487   0.461   0.425   0.434   0.414   0.425   0.410   0.407   0.413   0.416   0.428   0.431   0.449   0.436   0.454   0.422   0.427   0.430   0.454   0.431   0.435   0.454   0.454
    42.85    0.422   0.432   0.424   0.444   0.450   0.458   0.431   0.448   0.462   0.441   0.453   0.446   0.472   0.460   0.435   0.420   0.448   0.435   0.448   0.444   0.439   0.421   0.436   0.428   0.436   0.431   0.438   0.434   0.436   0.436   0.443   0.425   0.415   0.441   0.440
    38.20    0.442   0.436   0.431   0.449   0.453   0.459   0.445   0.426   0.437   0.425   0.433   0.444   0.449   0.452   0.456   0.430   0.432   0.453   0.461   0.438   0.448   0.429   0.439   0.426   0.409   0.412   0.420   0.439   0.441   0.432   0.422   0.416   0.419   0.430   0.436
    33.55    0.432   0.427   0.458   0.454   0.465   0.436   0.434   0.421   0.428   0.441   0.447   0.460   0.465   0.461   0.436   0.431   0.443   0.444   0.455   0.472   0.467   0.438   0.425   0.426   0.409   0.404   0.433   0.432   0.411   0.409   0.420   0.426   0.435   0.426   0.431
    28.90    0.419   0.427   0.446   0.468   0.450   0.456   0.423   0.430   0.423   0.435   0.438   0.467   0.470   0.491   0.462   0.457   0.452   0.450   0.457   0.462   0.454   0.457   0.441   0.437   0.407   0.406   0.420   0.438   0.414   0.409   0.401   0.403   0.413   0.428   0.450
    24.25    0.416   0.422   0.446   0.461   0.462   0.466   0.451   0.447   0.454   0.449   0.447   0.455   0.467   0.480   0.462   0.478   0.488   0.462   0.471   0.470   0.452   0.452   0.450   0.427   0.416   0.412   0.415   0.420   0.406   0.411   0.408   0.410   0.421   0.430   0.447
    19.60    0.424   0.440   0.450   0.440   0.456   0.445   0.452   0.414   0.447   0.436   0.453   0.448   0.452   0.470   0.485   0.472   0.490   0.472   0.457   0.464   0.465   0.441   0.437   0.412   0.418   0.386   0.404   0.413   0.401   0.415   0.429   0.428   0.419   0.415   0.440
    14.95    0.431   0.450   0.437   0.452   0.442   0.438   0.434   0.443   0.447   0.447   0.453   0.458   0.464   0.456   0.464   0.483   0.492   0.478   0.455   0.451   0.446   0.424   0.403   0.389   0.378   0.397   0.393   0.403   0.393   0.410   0.422   0.413   0.401   0.404   0.431
    10.30    0.435   0.434   0.463   0.458   0.454   0.441   0.449   0.448   0.440   0.423   0.435   0.452   0.455   0.466   0.469   0.468   0.505   0.475   0.464   0.461   0.445   0.428   0.383   0.403   0.400   0.380   0.377   0.410   0.404   0.406   0.404   0.385   0.414   0.410   0.423
     5.65    0.450   0.452   0.453   0.455   0.462   0.457   0.440   0.437   0.431   0.423   0.436   0.442   0.456   0.454   0.462   0.460   0.489   0.501   0.478   0.461   0.433   0.435   0.415   0.421   0.397   0.391   0.385   0.389   0.401   0.411   0.389   0.411   0.398   0.420   0.433
     1.00    0.435   0.424   0.431   0.430   0.433   0.443   0.415   0.415   0.428   0.412   0.441   0.455   0.448   0.457   0.481   0.467   0.453   0.475   0.455   0.458   0.442   0.440   0.432   0.429   0.410   0.410   0.416   0.404   0.417   0.421   0.400   0.420   0.411   0.432   0.440

   Height   Standard deviation at grid points for the w component:
   168.40    0.299   0.301   0.294   0.288   0.287   0.289   0.297   0.290   0.287   0.290   0.296   0.309   0.293   0.283   0.295   0.296   0.289   0.299   0.294   0.291   0.288   0.280   0.284   0.274   0.264   0.276   0.288   0.274   0.272   0.265   0.268   0.277   0.284   0.288   0.291
   163.75    0.290   0.291   0.281   0.289   0.281   0.294   0.288   0.283   0.280   0.289   0.298   0.306   0.303   0.290   0.294   0.297   0.300   0.290   0.286   0.283   0.283   0.273   0.276   0.281   0.271   0.279   0.280   0.277   0.279   0.270   0.277   0.284   0.286   0.285   0.285
   159.10    0.297   0.288   0.284   0.288   0.291   0.291   0.289   0.289   0.283   0.287   0.301   0.312   0.296   0.304   0.305   0.296   0.283   0.279   0.278   0.274   0.292   0.282   0.284   0.276   0.277   0.285   0.292   0.292   0.292   0.275   0.286   0.296   0.288   0.283   0.286
   154.45    0.283   0.285   0.276   0.285   0.293   0.294   0.286   0.277   0.277   0.280   0.292   0.302   0.307   0.293   0.301   0.291   0.282   0.272   0.283   0.287   0.291   0.282   0.287   0.280   0.287   0.291   0.300   0.294   0.296   0.280   0.277   0.284   0.276   0.275   0.289
   149.80    0.284   0.280   0.290   0.290   0.287   0.292   0.284   0.278   0.288   0.287   0.296   0.306   0.303   0.304   0.301   0.292   0.287   0.279   0.273   0.288   0.288   0.282   0.282   0.285   0.286   0.288   0.294   0.291   0.284   0.294   0.283   0.290   0.278   0.288   0.288
   145.15    0.290   0.286   0.302   0.295   0.290   0.287   0.277   0.288   0.287   0.289   0.298   0.301   0.306   0.305   0.299   0.297   0.306   0.293   0.291   0.301   0.294   0.295   0.293   0.279   0.274   0.272   0.279   0.284   0.286   0.281   0.286   0.281   0.280   0.284   0.297
   140.50    0.291   0.292   0.291   0.286   0.275   0.276   0.277   0.283   0.296   0.291   0.291   0.294   0.298   0.307   0.305   0.307   0.306   0.294   0.289   0.296   0.285   0.291   0.289   0.288   0.270   0.281   0.276   0.285   0.281   0.283   0.290   0.278   0.286   0.283   0.289
   135.85    0.295   0.295   0.288   0.291   0.277   0.279   0.282   0.284   0.299   0.304   0.293   0.305   0.300   0.303   0.303   0.307   0.287   0.283   0.295   0.285   0.282   0.294   0.293   0.287   0.282   0.274   0.276   0.293   0.282   0.278   0.287   0.285   0.290   0.290   0.284
   131.20    0.296   0.302   0.294   0.296   0.297   0.284   0.282   0.287   0.298   0.303   0.308   0.307   0.299   0.305   0.289   0.292   0.289   0.293   0.285   0.286   0.289   0.283   0.285   0.283   0.279   0.274   0.269   0.278   0.284   0.290   0.292   0.294   0.291   0.292   0.287
   126.55    0.292   0.291   0.294   0.297   0.290   0.281   0.276   0.287   0.297   0.293   0.304   0.292   0.308   0.304   0.298   0.284   0.282   0.285   0.291   0.284   0.287   0.279   0.281   0.278   0.278   0.274   0.276   0.283   0.279   0.283   0.273   0.277   0.274   0.285   0.285
   121.90    0.290   0.288   0.291   0.298   0.300   0.284   0.294   0.287   0.301   0.298   0.304   0.292   0.299   0.302   0.291   0.299   0.303   0.290   0.273   0.280   0.282   0.285   0.288   0.296   0.280   0.287   0.277   0.271   0.276   0.278   0.270   0.272   0.277   0.283   0.287
   117.25    0.285   0.295   0.291   0.295   0.300   0.300   0.291   0.291   0.291   0.295   0.303   0.293   0.299   0.289   0.294   0.300   0.297   0.296   0.283   0.277   0.289   0.286   0.283   0.294   0.308   0.284   0.268   0.274   0.285   0.280   0.269   0.277   0.278   0.279   0.275
   112.60    0.293   0.302   0.302   0.294   0.294   0.284   0.291   0.287   0.295   0.294   0.298   0.316   0.308   0.297   0.302   0.303   0.306   0.296   0.289   0.285   0.288   0.286   0.296   0.297   0.303   0.288   0.283   0.283   0.293   0.279   0.277   0.274   0.283   0.274   0.273
   107.95    0.305   0.304   0.312   0.300   0.301   0.302   0.295   0.293   0.296   0.282   0.295   0.311   0.300   0.300   0.296   0.308   0.306   0.293   0.290   0.287   0.276   0.290   0.284   0.288   0.287   0.296   0.292   0.276   0.287   0.293   0.294   0.288   0.289   0.282   0.285
   103.30    0.303   0.301   0.301   0.313   0.297   0.304   0.296   0.305   0.304   0.296   0.296   0.302   0.300   0.304   0.305   0.304   0.304   0.301   0.287   0.274   0.281   0.271   0.281   0.280   0.287   0.277   0.289   0.288   0.291   0.292   0.295   0.294   0.302   0.294   0.287
    98.65    0.298   0.298   0.291   0.307   0.298   0.301   0.300   0.304   0.302   0.311   0.309   0.304   0.296   0.307   0.306   0.302   0.298   0.302   0.295   0.281   0.279   0.270   0.277   0.284   0.290   0.281   0.282   0.286   0.284   0.296   0.300   0.295   0.306   0.300   0.287
    94.00    0.296   0.288   0.292   0.291   0.295   0.301   0.302   0.307   0.315   0.318   0.312   0.305   0.296   0.300   0.299   0.310   0.298   0.297   0.296   0.296   0.286   0.275   0.272   0.286   0.283   0.290   0.287   0.287   0.285   0.288   0.301   0.290   0.298   0.285   0.283
    89.35    0.300   0.295   0.293   0.281   0.294   0.296   0.290   0.303   0.315   0.310   0.294   0.297   0.308   0.308   0.300   0.296   0.294   0.299   0.305   0.304   0.292   0.279   0.279   0.280   0.271   0.282   0.280   0.286   0.286   0.288   0.296   0.309   0.300   0.295   0.290
    84.70    0.307   0.301   0.293   0.288   0.295   0.301   0.301   0.312   0.312   0.317   0.310   0.304   0.301   0.308   0.297   0.293   0.293   0.281   0.299   0.295   0.284   0.287   0.285   0.285   0.281   0.302   0.287   0.288   0.281   0.293   0.295   0.300   0.299   0.296   0.299
    80.05    0.295   0.293   0.286   0.289   0.305   0.312   0.305   0.309   0.314   0.314   0.313   0.312   0.309   0.303   0.288   0.295   0.294   0.286   0.285   0.296   0.294   0.280   0.283   0.286   0.299   0.298   0.294   0.293   0.299   0.300   0.298   0.306   0.293   0.297   0.293
    75.40    0.291   0.280   0.288   0.299   0.292   0.316   0.308   0.318   0.311   0.301   0.311   0.301   0.305   0.308   0.304   0.296   0.290   0.287   0.287   0.296   0.299   0.290   0.307   0.300   0.293   0.287   0.293   0.294   0.288   0.300   0.303   0.302   0.304   0.293   0.288
    70.75    0.284   0.296   0.292   0.295   0.299   0.311   0.317   0.310   0.315   0.305   0.303   0.304   0.302   0.297   0.304   0.303   0.291   0.283   0.295   0.300   0.290   0.277   0.294   0.303   0.298   0.287   0.286   0.289   0.291   0.290   0.288   0.289   0.302   0.295   0.282
    66.10    0.282   0.288   0.297   0.306   0.308   0.309   0.310   0.314   0.298   0.304   0.299   0.308   0.303   0.301   0.304   0.289   0.289   0.295   0.292   0.301   0.301   0.292   0.298   0.301   0.301   0.301   0.298   0.294   0.298   0.290   0.293   0.297   0.292   0.292   0.276
    61.45    0.286   0.290   0.296   0.307   0.302   0.306   0.313   0.308   0.304   0.303   0.301   0.297   0.288   0.288   0.294   0.292   0.300   0.296   0.295   0.304   0.303   0.294   0.292   0.301   0.288   0.296   0.302   0.286   0.288   0.284   0.304   0.301   0.291   0.293   0.277
    56.80    0.284   0.287   0.292   0.298   0.298   0.301   0.305   0.310   0.307   0.304   0.302   0.287   0.290   0.294   0.290   0.293   0.290   0.296   0.306   0.304   0.293   0.297   0.301   0.294   0.290   0.294   0.289   0.290   0.288   0.294   0.299   0.297   0.287   0.297   0.287
    52.15    0.281   0.289   0.291   0.290   0.292   0.308   0.310   0.299   0.296   0.303   0.307   0.295   0.299   0.309   0.300   0.291   0.287   0.305   0.308   0.301   0.289   0.290   0.288   0.295   0.292   0.299   0.293   0.286   0.291   0.284   0.293   0.289   0.287   0.293   0.301
    47.50    0.287   0.286   0.296   0.288   0.287   0.294   0.288   0.293   0.295   0.294   0.294   0.292   0.296   0.306   0.304   0.294   0.299   0.298   0.301   0.309   0.299   0.299   0.302   0.292   0.292   0.290   0.291   0.294   0.289   0.279   0.291   0.294   0.283   0.291   0.297
    42.85    0.275   0.291   0.289   0.284   0.297   0.286   0.290   0.289   0.285   0.284   0.282   0.285   0.295   0.300   0.290   0.294   0.294   0.302   0.300   0.309   0.296   0.297   0.298   0.303   0.299   0.296   0.289   0.291   0.286   0.288   0.297   0.290   0.296   0.287   0.295
    38.20    0.292   0.284   0.273   0.289   0.292   0.288   0.286   0.290   0.286   0.278   0.278   0.295   0.291   0.298   0.288   0.288   0.300   0.295   0.292   0.298   0.295   0.299   0.303   0.297   0.296   0.315   0.290   0.288   0.282   0.296   0.294   0.284   0.275   0.287   0.294
    33.55    0.280   0.281   0.282   0.290   0.283   0.280   0.294   0.297   0.279   0.267   0.282   0.284   0.296   0.294   0.277   0.282   0.290   0.285   0.300   0.296   0.304   0.297   0.296   0.289   0.296   0.300   0.287   0.291   0.287   0.291   0.287   0.289   0.280   0.294   0.300
    28.90    0.280   0.283   0.288   0.287   0.272   0.276   0.274   0.281   0.285   0.277   0.290   0.301   0.299   0.300   0.291   0.281   0.281   0.276   0.292   0.293   0.294   0.298   0.297   0.304   0.297   0.297   0.289   0.288   0.293   0.295   0.301   0.288   0.290   0.290   0.299
    24.25    0.278   0.278   0.289   0.290   0.273   0.282   0.277   0.280   0.286   0.292   0.290   0.289   0.293   0.295   0.291   0.287   0.268   0.269   0.281   0.294   0.295   0.301   0.291   0.299   0.287   0.293   0.287   0.296   0.304   0.305   0.303   0.299   0.288   0.295   0.301
    19.60    0.272   0.279   0.289   0.289   0.288   0.282   0.282   0.289   0.291   0.290   0.287   0.295   0.296   0.294   0.290   0.283   0.279   0.276   0.279   0.300   0.291   0.298   0.297   0.294   0.286   0.302   0.302   0.299   0.300   0.303   0.302   0.304   0.294   0.287   0.291
    14.95    0.283   0.287   0.284   0.287   0.289   0.288   0.285   0.282   0.290   0.281   0.287   0.299   0.288   0.286   0.290   0.278   0.272   0.277   0.282   0.290   0.305   0.307   0.305   0.296   0.308   0.304   0.301   0.298   0.294   0.293   0.301   0.298   0.289   0.293   0.302
    10.30    0.291   0.290   0.283   0.281   0.286   0.290   0.288   0.289   0.277   0.279   0.287   0.276   0.287   0.280   0.282   0.270   0.275   0.280   0.287   0.283   0.290   0.302   0.301   0.298   0.300   0.305   0.302   0.300   0.303   0.293   0.280   0.286   0.292   0.281   0.298
     5.65    0.289   0.283   0.280   0.291   0.291   0.293   0.294   0.284   0.274   0.284   0.286   0.285   0.289   0.271   0.272   0.271   0.276   0.281   0.281   0.278   0.281   0.294   0.296   0.289   0.299   0.303   0.304   0.294   0.293   0.278   0.278   0.277   0.274   0.278   0.283
     1.00    0.283   0.285   0.289   0.300   0.298   0.296   0.292   0.285   0.278   0.282   0.295   0.286   0.287   0.276   0.278   0.283   0.285   0.279   0.292   0.289   0.291   0.290   0.287   0.289   0.287   0.288   0.284   0.293   0.287   0.285   0.276   0.270   0.277   0.282   0.280

   Mean standard deviation across all grid points:
      u component:    0.535 m/s
      v component:    0.449 m/s
      w component:    0.291 m/s


U-component (X) statistics from the interpolated hub point:

   Mean =   9.9913 m/s
   TI   =   5.5571 %


Processing complete.  5979.6 CPU seconds used.
