
This summary file was generated by TurbSim (from OpenFAST-v3.5.3) on 20-Apr-2025 at 10:21:51.


Runtime Options:

**********  Random seed #1
    RANLUX  Type of random number generator
         F  Output binary HH turbulence parameters?
         F  Output formatted turbulence parameters?
         F  Output AeroDyn HH files?
         T  Output AeroDyn FF files?
         F  Output BLADED FF files?
         F  Output tower data?
         F  Output HAWC FF files?
         F  Output formatted FF files?
         T  Output coherent turbulence time step file?
 0 -  NONE  IEC turbulence models scaled to exact specified standard deviation


Turbine/Model Specifications:

        37  Vertical grid-point matrix dimension
        35  Horizontal grid-point matrix dimension
     0.250  Time step [seconds]
   900.000  Analysis time [seconds]
   900.000  Usable output time [seconds]
    89.350  Hub height [m]
   167.400  Grid height [m]
   158.100  Grid width [m]
     0.000  Vertical flow angle [degrees]
     0.000  Horizontal flow angle [degrees]


Meteorological Boundary Conditions:

    TIMESR  User-input time series spectral model
       N/A  IEC standard
       N/A  IEC turbulence characteristic
       N/A  IEC turbulence type
       N/A  IEC Extreme Turbulence Model (ETM) "c" parameter [m/s]
       PL   Wind profile type
    90.000  Reference height [m]
    10.000  Reference wind speed [m/s]
       N/A  Jet height [m]
     0.120  Power law exponent
     0.030  Surface roughness length [m]


Non-IEC Meteorological Boundary Conditions:

    45.000  Site latitude [degrees]
     0.050  Gradient Richardson number
     0.480  Friction or shear velocity [m/s]
       N/A  Mixing layer depth [m]
       N/A  Mean hub u'w' Reynolds stress
       N/A  Mean hub u'v' Reynolds stress
       N/A  Mean hub v'w' Reynolds stress


Spatial Coherence Models:

       IEC  u-component coherence model
       IEC  v-component coherence model
       IEC  w-component coherence model
(   12.000, 0.353E-03)  u-component coherence parameters
(   12.000, 0.353E-03)  v-component coherence parameters
(   12.000, 0.353E-03)  w-component coherence parameters
       N/A  Coherence exponent


Coherent Turbulence Scaling Parameters:

.\EventData
            Name of the path containing the coherent turbulence data files
       les  Type of coherent turbulence data files
     0.500  Disturbance scale (ratio of wave height to rotor diameter)
     0.500  Fractional location of tower centerline from right
     1.000  Fractional location of hub height from the bottom of the dataset
    30.000  Minimum start time for coherent structures [seconds]


Profiles from User-Defined Time-Series Input:

  Height   Wind Speed   Horizontal Angle   Vertical Angle
   (m)        (m/s)          (deg)              (deg)    
  ------   ----------   ----------------   --------------
   94.00      10.00          -0.63               -0.00


You have requested that the following file(s) be generated:

   /kfs3/scratch/agupta/Projects/RL_Incubator/FinalRuns_Veer/Seed4/./FFSim_Seed4/Cond00_v10.0_PL0.12_TI7.5/Case2_wdirp04/Seed_9/TurbSim/HighT13.bts (AeroDyn/TurbSim full-field wind file)


Turbulence Simulation Scaling Parameter Summary:

   Turbulence model used                            =  User-input time series
   Gradient Richardson number                       =    0.050
   Monin-Obukhov (M-O) z/L parameter                =    0.067
   Monin-Obukhov (M-O) length scale                 = 1340.250 m
   Mean wind speed at hub height                    =    9.991 m/s

   Wind profile type                                =  Power law
   Power law exponent                               =    0.120
   Mean shear across rotor disk                     =    0.019 (m/s)/m
   Assumed rotor diameter                           =  158.100 m
   Surface roughness length                         =    0.030 m

   Nyquist frequency of turbulent wind field        =    2.000 Hz

   Number of time steps in the FFT                  =     3600
   Number of time steps output                      =     3600
   Number of points simulated                       =     1296


Mean Flow Angles:

   Vertical   =   0.0 degrees
   Horizontal =   0.0 degrees

Mean Wind Speed Profile:

   Height    Wind Speed   Horizontal Angle  Vertical Angle  U-comp (X)   V-comp (Y)   W-comp (Z)
     (m)        (m/s)         (degrees)       (degrees)       (m/s)        (m/s)        (m/s)   
   ------    ----------   ----------------  --------------  ----------   ----------   ----------
    168.4       10.78            0.00            0.00         10.78         0.00         0.00
    163.7       10.74            0.00            0.00         10.74         0.00         0.00
    159.1       10.71            0.00            0.00         10.71         0.00         0.00
    154.4       10.67            0.00            0.00         10.67         0.00         0.00
    149.8       10.63            0.00            0.00         10.63         0.00         0.00
    145.1       10.59            0.00            0.00         10.59         0.00         0.00
    140.5       10.55            0.00            0.00         10.55         0.00         0.00
    135.8       10.51            0.00            0.00         10.51         0.00         0.00
    131.2       10.46            0.00            0.00         10.46         0.00         0.00
    126.5       10.42            0.00            0.00         10.42         0.00         0.00
    121.9       10.37            0.00            0.00         10.37         0.00         0.00
    117.2       10.32            0.00            0.00         10.32         0.00         0.00
    112.6       10.27            0.00            0.00         10.27         0.00         0.00
    107.9       10.22            0.00            0.00         10.22         0.00         0.00
    103.3       10.17            0.00            0.00         10.17         0.00         0.00
     98.6       10.11            0.00            0.00         10.11         0.00         0.00
     94.0       10.05            0.00            0.00         10.05         0.00         0.00
     89.3        9.99            0.00            0.00          9.99         0.00         0.00
     84.7        9.93            0.00            0.00          9.93         0.00         0.00
     80.0        9.86            0.00            0.00          9.86         0.00         0.00
     75.4        9.79            0.00            0.00          9.79         0.00         0.00
     70.7        9.72            0.00            0.00          9.72         0.00         0.00
     66.1        9.64            0.00            0.00          9.64         0.00         0.00
     61.4        9.55            0.00            0.00          9.55         0.00         0.00
     56.8        9.46            0.00            0.00          9.46         0.00         0.00
     52.1        9.37            0.00            0.00          9.37         0.00         0.00
     47.5        9.26            0.00            0.00          9.26         0.00         0.00
     42.8        9.15            0.00            0.00          9.15         0.00         0.00
     38.2        9.02            0.00            0.00          9.02         0.00         0.00
     33.5        8.88            0.00            0.00          8.88         0.00         0.00
     28.9        8.73            0.00            0.00          8.73         0.00         0.00
     24.2        8.54            0.00            0.00          8.54         0.00         0.00
     19.6        8.33            0.00            0.00          8.33         0.00         0.00
     14.9        8.06            0.00            0.00          8.06         0.00         0.00
     10.3        7.71            0.00            0.00          7.71         0.00         0.00
      5.6        7.17            0.00            0.00          7.17         0.00         0.00
      1.0        5.83            0.00            0.00          5.83         0.00         0.00


Harvested Random Seeds after Generation of the Random Numbers:

     65026800 K 1
            0 K 2


Hub-Height Simulated Turbulence Statistical Summary:

   Type of Wind        Min (m/s)   Mean (m/s)    Max (m/s)  Sigma (m/s)       TI (%)
   ----------------    ---------   ----------    ---------  -----------       ------
   Longitudinal (u)         8.45         9.99        11.71        0.559        5.593
   Lateral (v)             -1.79         0.00         1.98        0.587        5.871
   Vertical (w)            -1.16         0.00         1.23        0.329        3.289
   U component              8.45         9.99        11.71        0.559        5.593
   V component             -1.79         0.00         1.98        0.587        5.871
   W component             -1.16         0.00         1.23        0.329        3.289
   Horizontal (U&V)         8.48        10.01        11.73        0.559        5.584
   Total                    8.49        10.01        11.73        0.558        5.577

                       Min Reynolds     Mean Reynolds    Max Reynolds    Correlation
   Product             Stress (m/s)^2   Stress (m/s)^2   Stress (m/s)^2  Coefficient
   ----------------    --------------   --------------   --------------  -----------
   u'w'                     -1.567            -0.021             0.937        -0.114
   u'v'                     -2.194            -0.011             1.775        -0.035
   v'w'                     -1.270             0.015             1.035         0.079


   Friction Velocity (Ustar)  =      0.145 m/s
   Maximum Instantaneous TKE  =      2.399 (m/s)^2
   Maximum Instantaneous CTKE =      1.223 (m/s)^2


Grid Point Variance Summary:

   Y-coord  -79.05  -74.40  -69.75  -65.10  -60.45  -55.80  -51.15  -46.50  -41.85  -37.20  -32.55  -27.90  -23.25  -18.60  -13.95   -9.30   -4.65    0.00    4.65    9.30   13.95   18.60   23.25   27.90   32.55   37.20   41.85   46.50   51.15   55.80   60.45   65.10   69.75   74.40   79.05

   Height   Standard deviation at grid points for the u component:
   168.40    0.722   0.686   0.680   0.648   0.628   0.638   0.613   0.626   0.630   0.616   0.623   0.635   0.630   0.617   0.612   0.581   0.577   0.577   0.601   0.607   0.583   0.589   0.554   0.543   0.519   0.550   0.560   0.579   0.585   0.597   0.649   0.650   0.638   0.607   0.620
   163.75    0.731   0.694   0.697   0.668   0.654   0.658   0.684   0.651   0.627   0.643   0.630   0.642   0.646   0.612   0.590   0.568   0.582   0.578   0.576   0.573   0.581   0.588   0.546   0.547   0.536   0.535   0.540   0.569   0.589   0.600   0.608   0.605   0.626   0.625   0.619
   159.10    0.698   0.712   0.707   0.708   0.687   0.691   0.680   0.681   0.671   0.650   0.644   0.637   0.641   0.610   0.610   0.614   0.560   0.569   0.584   0.608   0.595   0.590   0.557   0.527   0.542   0.558   0.554   0.576   0.591   0.583   0.599   0.605   0.623   0.636   0.630
   154.45    0.736   0.719   0.710   0.726   0.714   0.678   0.669   0.688   0.653   0.652   0.671   0.668   0.642   0.610   0.589   0.557   0.562   0.598   0.607   0.630   0.567   0.563   0.534   0.512   0.539   0.559   0.579   0.593   0.576   0.598   0.599   0.597   0.596   0.584   0.633
   149.80    0.729   0.694   0.685   0.711   0.692   0.692   0.680   0.677   0.684   0.658   0.660   0.678   0.635   0.615   0.595   0.529   0.546   0.573   0.613   0.653   0.605   0.592   0.571   0.549   0.533   0.553   0.600   0.567   0.549   0.552   0.566   0.594   0.589   0.577   0.609
   145.15    0.704   0.675   0.680   0.721   0.706   0.701   0.683   0.684   0.655   0.678   0.670   0.631   0.610   0.608   0.577   0.541   0.540   0.594   0.634   0.606   0.632   0.619   0.592   0.577   0.543   0.544   0.593   0.598   0.572   0.564   0.544   0.568   0.595   0.608   0.592
   140.50    0.722   0.717   0.703   0.716   0.705   0.695   0.687   0.668   0.681   0.657   0.644   0.592   0.605   0.624   0.604   0.586   0.571   0.589   0.612   0.588   0.604   0.619   0.605   0.601   0.561   0.588   0.589   0.576   0.559   0.562   0.558   0.572   0.595   0.612   0.579
   135.85    0.741   0.726   0.737   0.713   0.712   0.682   0.682   0.650   0.665   0.653   0.636   0.597   0.606   0.584   0.576   0.600   0.605   0.589   0.624   0.598   0.578   0.595   0.605   0.607   0.607   0.582   0.613   0.580   0.553   0.561   0.571   0.595   0.606   0.616   0.555
   131.20    0.717   0.714   0.719   0.713   0.710   0.666   0.635   0.655   0.663   0.640   0.652   0.618   0.611   0.583   0.577   0.594   0.638   0.606   0.612   0.589   0.606   0.604   0.624   0.608   0.589   0.579   0.583   0.573   0.553   0.585   0.588   0.574   0.606   0.598   0.587
   126.55    0.730   0.701   0.699   0.689   0.660   0.657   0.650   0.679   0.645   0.635   0.610   0.623   0.624   0.610   0.604   0.596   0.625   0.621   0.626   0.607   0.582   0.602   0.604   0.598   0.568   0.591   0.587   0.555   0.559   0.568   0.577   0.567   0.532   0.549   0.512
   121.90    0.718   0.705   0.693   0.677   0.628   0.602   0.649   0.653   0.630   0.637   0.656   0.626   0.640   0.629   0.617   0.590   0.626   0.632   0.606   0.566   0.566   0.562   0.575   0.566   0.582   0.571   0.574   0.557   0.563   0.553   0.552   0.526   0.512   0.493   0.528
   117.25    0.676   0.680   0.694   0.635   0.622   0.587   0.640   0.625   0.629   0.635   0.642   0.621   0.614   0.627   0.615   0.612   0.612   0.622   0.586   0.574   0.516   0.521   0.542   0.535   0.566   0.528   0.558   0.552   0.560   0.527   0.539   0.521   0.514   0.496   0.494
   112.60    0.683   0.676   0.670   0.626   0.603   0.582   0.582   0.604   0.592   0.651   0.589   0.589   0.626   0.612   0.627   0.594   0.602   0.593   0.574   0.567   0.539   0.518   0.516   0.546   0.541   0.556   0.552   0.570   0.541   0.562   0.544   0.524   0.518   0.529   0.528
   107.95    0.659   0.682   0.659   0.634   0.627   0.583   0.556   0.586   0.633   0.638   0.612   0.623   0.613   0.603   0.615   0.589   0.605   0.578   0.600   0.567   0.535   0.546   0.520   0.531   0.550   0.533   0.536   0.571   0.560   0.529   0.541   0.533   0.502   0.528   0.570
   103.30    0.650   0.659   0.668   0.656   0.637   0.602   0.594   0.587   0.622   0.629   0.608   0.580   0.583   0.577   0.590   0.582   0.567   0.579   0.554   0.561   0.542   0.537   0.533   0.532   0.531   0.540   0.556   0.568   0.543   0.524   0.524   0.495   0.527   0.545   0.567
    98.65    0.663   0.649   0.649   0.643   0.656   0.598   0.607   0.612   0.617   0.636   0.617   0.559   0.556   0.607   0.564   0.566   0.571   0.598   0.592   0.560   0.545   0.528   0.523   0.527   0.541   0.524   0.552   0.515   0.538   0.499   0.489   0.520   0.503   0.554   0.528
    94.00    0.633   0.641   0.664   0.661   0.618   0.604   0.630   0.650   0.617   0.628   0.614   0.593   0.535   0.569   0.606   0.594   0.581   0.576   0.582   0.580   0.568   0.557   0.527   0.526   0.549   0.525   0.515   0.525   0.498   0.497   0.494   0.513   0.526   0.542   0.545
    89.35    0.614   0.607   0.614   0.614   0.618   0.622   0.635   0.646   0.605   0.618   0.594   0.602   0.561   0.573   0.586   0.585   0.589   0.559   0.571   0.561   0.544   0.545   0.539   0.549   0.558   0.543   0.528   0.512   0.492   0.481   0.478   0.489   0.517   0.548   0.539
    84.70    0.623   0.617   0.638   0.619   0.616   0.632   0.661   0.644   0.634   0.595   0.574   0.575   0.584   0.582   0.558   0.528   0.559   0.557   0.555   0.526   0.543   0.549   0.557   0.531   0.545   0.534   0.541   0.509   0.496   0.485   0.487   0.487   0.513   0.533   0.542
    80.05    0.618   0.624   0.633   0.637   0.635   0.622   0.603   0.583   0.560   0.579   0.572   0.534   0.560   0.560   0.540   0.546   0.597   0.596   0.567   0.555   0.544   0.547   0.524   0.532   0.530   0.545   0.549   0.537   0.515   0.494   0.494   0.489   0.516   0.533   0.507
    75.40    0.605   0.628   0.622   0.635   0.611   0.606   0.607   0.580   0.570   0.566   0.546   0.532   0.562   0.564   0.560   0.588   0.583   0.599   0.590   0.574   0.554   0.535   0.515   0.534   0.542   0.549   0.540   0.547   0.513   0.532   0.535   0.523   0.523   0.515   0.498
    70.75    0.567   0.597   0.636   0.628   0.634   0.624   0.624   0.593   0.563   0.551   0.530   0.524   0.580   0.606   0.585   0.601   0.598   0.593   0.566   0.546   0.547   0.517   0.506   0.519   0.520   0.539   0.529   0.524   0.522   0.568   0.590   0.553   0.542   0.506   0.509
    66.10    0.561   0.584   0.623   0.626   0.605   0.609   0.617   0.610   0.566   0.545   0.560   0.570   0.575   0.597   0.555   0.584   0.577   0.575   0.566   0.543   0.539   0.499   0.509   0.517   0.513   0.541   0.537   0.527   0.528   0.548   0.539   0.558   0.557   0.552   0.519
    61.45    0.587   0.600   0.611   0.594   0.633   0.597   0.593   0.603   0.585   0.587   0.566   0.581   0.555   0.576   0.561   0.554   0.541   0.526   0.543   0.537   0.531   0.536   0.540   0.550   0.543   0.525   0.518   0.531   0.532   0.533   0.529   0.559   0.541   0.531   0.537
    56.80    0.562   0.622   0.609   0.624   0.630   0.615   0.615   0.600   0.598   0.595   0.555   0.583   0.592   0.575   0.560   0.556   0.576   0.543   0.543   0.525   0.517   0.509   0.527   0.542   0.542   0.545   0.555   0.559   0.526   0.530   0.526   0.536   0.522   0.496   0.505
    52.15    0.558   0.562   0.574   0.599   0.611   0.600   0.590   0.577   0.564   0.551   0.570   0.597   0.607   0.595   0.537   0.546   0.537   0.520   0.512   0.531   0.539   0.522   0.523   0.525   0.510   0.501   0.523   0.523   0.526   0.537   0.556   0.528   0.483   0.474   0.480
    47.50    0.531   0.537   0.575   0.609   0.579   0.572   0.562   0.583   0.568   0.570   0.577   0.602   0.604   0.583   0.578   0.550   0.535   0.535   0.533   0.511   0.560   0.546   0.506   0.522   0.515   0.505   0.518   0.521   0.539   0.545   0.546   0.543   0.503   0.468   0.474
    42.85    0.560   0.562   0.580   0.572   0.581   0.569   0.564   0.577   0.571   0.574   0.564   0.577   0.589   0.550   0.550   0.536   0.538   0.536   0.533   0.562   0.584   0.556   0.554   0.526   0.546   0.523   0.507   0.531   0.512   0.500   0.524   0.520   0.524   0.500   0.502
    38.20    0.546   0.574   0.577   0.564   0.553   0.584   0.567   0.581   0.571   0.576   0.579   0.579   0.586   0.563   0.538   0.549   0.559   0.545   0.555   0.568   0.585   0.586   0.561   0.554   0.542   0.554   0.544   0.544   0.523   0.538   0.570   0.546   0.563   0.519   0.510
    33.55    0.550   0.582   0.589   0.539   0.544   0.557   0.535   0.583   0.585   0.574   0.583   0.597   0.576   0.551   0.543   0.524   0.526   0.520   0.548   0.561   0.567   0.548   0.540   0.563   0.562   0.594   0.598   0.576   0.551   0.571   0.552   0.582   0.530   0.543   0.503
    28.90    0.563   0.566   0.585   0.567   0.537   0.554   0.559   0.566   0.542   0.556   0.576   0.586   0.574   0.533   0.553   0.561   0.567   0.556   0.584   0.580   0.569   0.598   0.589   0.575   0.574   0.582   0.583   0.566   0.567   0.573   0.573   0.571   0.581   0.543   0.520
    24.25    0.541   0.527   0.557   0.543   0.541   0.527   0.522   0.533   0.560   0.577   0.588   0.585   0.572   0.559   0.563   0.567   0.596   0.577   0.576   0.577   0.570   0.597   0.595   0.571   0.576   0.586   0.585   0.540   0.548   0.568   0.582   0.617   0.606   0.563   0.542
    19.60    0.531   0.547   0.554   0.561   0.516   0.542   0.551   0.544   0.568   0.570   0.596   0.601   0.541   0.533   0.546   0.559   0.556   0.567   0.571   0.579   0.599   0.582   0.599   0.561   0.561   0.556   0.584   0.587   0.565   0.571   0.610   0.610   0.600   0.578   0.556
    14.95    0.518   0.552   0.538   0.558   0.529   0.553   0.541   0.554   0.582   0.565   0.597   0.584   0.574   0.574   0.578   0.573   0.579   0.569   0.598   0.593   0.605   0.623   0.589   0.568   0.583   0.560   0.564   0.561   0.585   0.576   0.613   0.591   0.585   0.571   0.542
    10.30    0.548   0.554   0.533   0.541   0.544   0.555   0.542   0.550   0.574   0.574   0.589   0.585   0.571   0.592   0.575   0.549   0.546   0.541   0.560   0.526   0.560   0.587   0.610   0.594   0.582   0.577   0.560   0.562   0.579   0.594   0.580   0.562   0.577   0.526   0.546
     5.65    0.565   0.603   0.531   0.551   0.566   0.554   0.557   0.544   0.561   0.574   0.591   0.576   0.592   0.575   0.563   0.558   0.571   0.534   0.530   0.512   0.543   0.592   0.595   0.570   0.558   0.579   0.585   0.573   0.583   0.560   0.555   0.557   0.546   0.523   0.502
     1.00    0.602   0.592   0.607   0.580   0.552   0.572   0.580   0.577   0.570   0.579   0.583   0.568   0.586   0.602   0.615   0.600   0.554   0.548   0.514   0.538   0.553   0.600   0.597   0.583   0.570   0.579   0.562   0.586   0.603   0.565   0.564   0.552   0.530   0.539   0.536

   Height   Standard deviation at grid points for the v component:
   168.40    0.591   0.588   0.565   0.596   0.596   0.600   0.577   0.569   0.599   0.600   0.585   0.573   0.562   0.566   0.530   0.535   0.563   0.558   0.595   0.608   0.616   0.646   0.648   0.626   0.631   0.609   0.585   0.606   0.625   0.616   0.647   0.619   0.629   0.622   0.581
   163.75    0.652   0.619   0.610   0.618   0.596   0.588   0.601   0.560   0.579   0.587   0.566   0.565   0.541   0.516   0.543   0.541   0.555   0.566   0.565   0.577   0.621   0.640   0.665   0.639   0.611   0.599   0.600   0.608   0.642   0.595   0.581   0.593   0.608   0.609   0.562
   159.10    0.638   0.574   0.626   0.612   0.609   0.560   0.548   0.570   0.566   0.569   0.600   0.575   0.535   0.541   0.570   0.614   0.606   0.577   0.572   0.623   0.681   0.646   0.691   0.634   0.598   0.586   0.612   0.644   0.601   0.605   0.567   0.579   0.599   0.625   0.554
   154.45    0.634   0.618   0.629   0.603   0.578   0.575   0.556   0.578   0.575   0.531   0.565   0.574   0.578   0.580   0.635   0.635   0.618   0.605   0.617   0.662   0.675   0.679   0.675   0.660   0.628   0.639   0.635   0.635   0.588   0.588   0.570   0.555   0.572   0.576   0.580
   149.80    0.630   0.600   0.585   0.576   0.566   0.573   0.607   0.593   0.578   0.560   0.587   0.542   0.549   0.594   0.634   0.614   0.615   0.635   0.660   0.687   0.695   0.692   0.700   0.708   0.651   0.660   0.652   0.647   0.587   0.567   0.551   0.528   0.547   0.569   0.572
   145.15    0.631   0.604   0.569   0.581   0.583   0.572   0.567   0.572   0.558   0.572   0.578   0.571   0.587   0.609   0.593   0.602   0.635   0.656   0.677   0.703   0.750   0.685   0.700   0.719   0.710   0.663   0.625   0.623   0.608   0.547   0.567   0.535   0.552   0.575   0.585
   140.50    0.612   0.611   0.579   0.555   0.573   0.548   0.545   0.560   0.566   0.582   0.598   0.608   0.570   0.561   0.592   0.647   0.657   0.654   0.664   0.718   0.700   0.717   0.737   0.685   0.691   0.672   0.645   0.611   0.596   0.567   0.541   0.558   0.566   0.594   0.574
   135.85    0.599   0.591   0.583   0.555   0.578   0.556   0.527   0.549   0.561   0.579   0.617   0.591   0.585   0.571   0.579   0.628   0.655   0.680   0.674   0.717   0.707   0.733   0.694   0.682   0.687   0.681   0.619   0.607   0.598   0.583   0.565   0.580   0.601   0.568   0.575
   131.20    0.636   0.600   0.589   0.559   0.597   0.581   0.568   0.571   0.574   0.618   0.617   0.616   0.570   0.593   0.602   0.632   0.638   0.660   0.692   0.684   0.691   0.672   0.665   0.656   0.650   0.614   0.563   0.549   0.559   0.538   0.573   0.591   0.590   0.591   0.552
   126.55    0.625   0.642   0.621   0.600   0.611   0.638   0.617   0.633   0.631   0.660   0.630   0.633   0.558   0.583   0.585   0.624   0.613   0.608   0.613   0.637   0.645   0.639   0.637   0.653   0.601   0.569   0.528   0.532   0.534   0.550   0.575   0.580   0.570   0.560   0.549
   121.90    0.660   0.627   0.659   0.623   0.616   0.628   0.635   0.627   0.634   0.641   0.651   0.606   0.593   0.558   0.582   0.578   0.585   0.624   0.620   0.631   0.648   0.638   0.633   0.635   0.604   0.580   0.577   0.556   0.592   0.567   0.561   0.574   0.568   0.552   0.561
   117.25    0.661   0.642   0.673   0.652   0.643   0.630   0.664   0.625   0.654   0.615   0.578   0.586   0.581   0.548   0.592   0.578   0.601   0.602   0.631   0.654   0.630   0.620   0.628   0.614   0.638   0.648   0.576   0.592   0.619   0.593   0.601   0.577   0.569   0.560   0.528
   112.60    0.687   0.647   0.647   0.663   0.673   0.667   0.651   0.642   0.662   0.658   0.625   0.608   0.586   0.599   0.589   0.597   0.607   0.596   0.603   0.622   0.619   0.639   0.632   0.625   0.661   0.650   0.623   0.619   0.588   0.604   0.565   0.580   0.570   0.565   0.514
   107.95    0.671   0.701   0.691   0.687   0.667   0.672   0.664   0.625   0.634   0.687   0.670   0.649   0.625   0.603   0.622   0.575   0.575   0.605   0.571   0.595   0.618   0.636   0.622   0.609   0.648   0.619   0.611   0.595   0.595   0.559   0.546   0.559   0.558   0.569   0.577
   103.30    0.676   0.703   0.678   0.681   0.657   0.708   0.667   0.636   0.669   0.740   0.664   0.650   0.649   0.623   0.603   0.586   0.597   0.591   0.598   0.620   0.635   0.631   0.648   0.643   0.641   0.619   0.627   0.605   0.616   0.579   0.557   0.535   0.524   0.559   0.553
    98.65    0.647   0.655   0.640   0.624   0.649   0.640   0.638   0.634   0.654   0.704   0.670   0.680   0.674   0.643   0.603   0.595   0.608   0.609   0.616   0.619   0.620   0.616   0.651   0.658   0.664   0.623   0.613   0.629   0.661   0.582   0.534   0.566   0.562   0.551   0.541
    94.00    0.675   0.631   0.623   0.582   0.610   0.636   0.660   0.639   0.688   0.701   0.745   0.691   0.691   0.651   0.610   0.614   0.635   0.621   0.608   0.610   0.619   0.629   0.622   0.670   0.661   0.677   0.635   0.637   0.645   0.588   0.534   0.547   0.552   0.544   0.536
    89.35    0.625   0.611   0.589   0.589   0.610   0.606   0.635   0.682   0.684   0.690   0.715   0.714   0.685   0.627   0.618   0.606   0.593   0.587   0.598   0.587   0.625   0.617   0.603   0.644   0.650   0.680   0.646   0.572   0.592   0.598   0.557   0.561   0.551   0.530   0.528
    84.70    0.601   0.614   0.591   0.575   0.617   0.582   0.635   0.660   0.659   0.710   0.696   0.690   0.653   0.621   0.626   0.600   0.572   0.592   0.597   0.579   0.669   0.628   0.640   0.657   0.623   0.630   0.580   0.574   0.561   0.549   0.530   0.539   0.525   0.541   0.557
    80.05    0.580   0.571   0.552   0.557   0.589   0.585   0.589   0.613   0.656   0.684   0.686   0.686   0.668   0.635   0.632   0.597   0.609   0.580   0.574   0.569   0.619   0.653   0.619   0.621   0.620   0.615   0.576   0.553   0.535   0.564   0.559   0.559   0.541   0.566   0.595
    75.40    0.565   0.561   0.552   0.538   0.581   0.622   0.574   0.589   0.650   0.655   0.649   0.654   0.639   0.624   0.619   0.582   0.587   0.568   0.554   0.557   0.568   0.615   0.643   0.592   0.623   0.571   0.557   0.541   0.535   0.564   0.557   0.583   0.573   0.549   0.584
    70.75    0.571   0.573   0.585   0.582   0.618   0.602   0.575   0.583   0.616   0.631   0.647   0.634   0.645   0.636   0.601   0.580   0.594   0.569   0.540   0.553   0.559   0.616   0.628   0.638   0.603   0.573   0.568   0.536   0.532   0.532   0.546   0.570   0.590   0.591   0.573
    66.10    0.569   0.567   0.585   0.621   0.615   0.598   0.577   0.601   0.629   0.617   0.638   0.643   0.626   0.637   0.621   0.612   0.554   0.568   0.547   0.569   0.588   0.618   0.643   0.631   0.603   0.592   0.588   0.577   0.552   0.544   0.545   0.594   0.600   0.566   0.593
    61.45    0.571   0.595   0.589   0.610   0.590   0.618   0.609   0.619   0.649   0.637   0.626   0.648   0.602   0.585   0.608   0.605   0.558   0.538   0.544   0.540   0.532   0.581   0.647   0.632   0.579   0.573   0.551   0.566   0.558   0.556   0.568   0.573   0.586   0.581   0.583
    56.80    0.587   0.568   0.586   0.604   0.610   0.661   0.618   0.609   0.632   0.653   0.606   0.597   0.565   0.575   0.557   0.575   0.561   0.527   0.521   0.530   0.533   0.571   0.617   0.593   0.544   0.559   0.587   0.591   0.580   0.593   0.602   0.617   0.629   0.628   0.598
    52.15    0.591   0.567   0.555   0.559   0.604   0.630   0.640   0.616   0.618   0.641   0.601   0.612   0.572   0.548   0.560   0.553   0.548   0.550   0.537   0.508   0.530   0.555   0.579   0.598   0.575   0.597   0.598   0.603   0.561   0.590   0.625   0.663   0.627   0.613   0.636
    47.50    0.579   0.601   0.579   0.588   0.624   0.635   0.632   0.644   0.605   0.576   0.584   0.569   0.563   0.545   0.547   0.539   0.515   0.534   0.507   0.515   0.527   0.543   0.557   0.564   0.587   0.578   0.586   0.614   0.588   0.608   0.644   0.652   0.609   0.635   0.639
    42.85    0.557   0.537   0.565   0.596   0.619   0.596   0.632   0.593   0.581   0.540   0.564   0.577   0.588   0.576   0.543   0.544   0.518   0.514   0.518   0.522   0.580   0.545   0.589   0.592   0.597   0.578   0.563   0.589   0.644   0.638   0.623   0.604   0.597   0.593   0.627
    38.20    0.538   0.564   0.564   0.589   0.610   0.610   0.624   0.594   0.545   0.564   0.539   0.535   0.566   0.567   0.550   0.542   0.517   0.513   0.528   0.550   0.555   0.588   0.613   0.601   0.591   0.611   0.571   0.572   0.602   0.616   0.623   0.619   0.588   0.582   0.598
    33.55    0.554   0.593   0.620   0.599   0.626   0.602   0.609   0.581   0.562   0.553   0.546   0.552   0.572   0.533   0.548   0.550   0.517   0.553   0.550   0.594   0.591   0.590   0.623   0.632   0.595   0.630   0.578   0.610   0.619   0.609   0.627   0.587   0.632   0.603   0.606
    28.90    0.598   0.594   0.607   0.608   0.622   0.621   0.613   0.605   0.566   0.557   0.567   0.541   0.541   0.533   0.552   0.579   0.549   0.579   0.593   0.613   0.602   0.629   0.646   0.657   0.623   0.616   0.606   0.632   0.701   0.653   0.630   0.646   0.654   0.613   0.585
    24.25    0.595   0.572   0.585   0.605   0.639   0.607   0.600   0.599   0.580   0.558   0.536   0.508   0.531   0.565   0.566   0.597   0.561   0.569   0.575   0.613   0.568   0.578   0.632   0.603   0.638   0.623   0.624   0.663   0.651   0.652   0.632   0.666   0.643   0.582   0.606
    19.60    0.590   0.576   0.576   0.637   0.593   0.633   0.591   0.564   0.552   0.543   0.535   0.519   0.555   0.558   0.589   0.608   0.579   0.583   0.602   0.591   0.568   0.556   0.590   0.630   0.626   0.636   0.638   0.682   0.702   0.698   0.712   0.654   0.661   0.650   0.635
    14.95    0.595   0.595   0.608   0.627   0.653   0.629   0.604   0.556   0.544   0.535   0.525   0.546   0.556   0.552   0.572   0.596   0.591   0.587   0.612   0.585   0.590   0.606   0.589   0.639   0.585   0.576   0.606   0.608   0.659   0.709   0.712   0.668   0.694   0.659   0.646
    10.30    0.574   0.603   0.584   0.615   0.619   0.585   0.594   0.578   0.550   0.543   0.546   0.577   0.561   0.545   0.564   0.559   0.617   0.604   0.618   0.624   0.625   0.593   0.654   0.644   0.630   0.620   0.606   0.629   0.621   0.651   0.687   0.683   0.645   0.628   0.624
     5.65    0.604   0.590   0.574   0.586   0.572   0.542   0.532   0.555   0.564   0.539   0.583   0.599   0.585   0.580   0.576   0.583   0.639   0.682   0.659   0.656   0.606   0.631   0.654   0.625   0.608   0.587   0.622   0.646   0.616   0.635   0.666   0.691   0.629   0.628   0.654
     1.00    0.593   0.579   0.589   0.551   0.560   0.567   0.551   0.557   0.548   0.576   0.564   0.596   0.572   0.572   0.588   0.620   0.620   0.638   0.669   0.623   0.625   0.608   0.632   0.639   0.589   0.575   0.597   0.630   0.600   0.629   0.657   0.645   0.633   0.638   0.655

   Height   Standard deviation at grid points for the w component:
   168.40    0.367   0.368   0.361   0.351   0.345   0.357   0.357   0.358   0.359   0.351   0.354   0.344   0.366   0.358   0.368   0.372   0.373   0.365   0.355   0.343   0.347   0.334   0.342   0.344   0.328   0.351   0.337   0.341   0.346   0.337   0.354   0.348   0.356   0.344   0.347
   163.75    0.360   0.372   0.373   0.360   0.372   0.361   0.348   0.353   0.369   0.360   0.343   0.354   0.354   0.362   0.359   0.375   0.366   0.351   0.352   0.347   0.338   0.343   0.344   0.352   0.363   0.347   0.348   0.347   0.357   0.344   0.341   0.349   0.352   0.349   0.357
   159.10    0.350   0.365   0.355   0.356   0.363   0.349   0.348   0.341   0.355   0.348   0.341   0.356   0.345   0.357   0.361   0.354   0.353   0.362   0.353   0.341   0.344   0.336   0.357   0.360   0.372   0.368   0.349   0.351   0.356   0.357   0.352   0.353   0.356   0.352   0.358
   154.45    0.340   0.338   0.345   0.352   0.352   0.349   0.353   0.350   0.354   0.354   0.348   0.349   0.352   0.357   0.352   0.354   0.356   0.361   0.338   0.342   0.346   0.349   0.364   0.369   0.352   0.366   0.345   0.342   0.336   0.348   0.372   0.340   0.343   0.345   0.350
   149.80    0.332   0.340   0.346   0.340   0.342   0.343   0.343   0.336   0.353   0.345   0.350   0.354   0.359   0.366   0.365   0.359   0.357   0.350   0.358   0.356   0.356   0.341   0.361   0.349   0.354   0.350   0.347   0.338   0.346   0.348   0.351   0.354   0.353   0.354   0.349
   145.15    0.349   0.345   0.347   0.333   0.327   0.333   0.339   0.339   0.346   0.356   0.342   0.347   0.364   0.367   0.362   0.365   0.355   0.347   0.361   0.359   0.355   0.333   0.346   0.356   0.351   0.342   0.346   0.333   0.334   0.354   0.344   0.345   0.355   0.361   0.347
   140.50    0.346   0.347   0.344   0.316   0.318   0.326   0.336   0.335   0.334   0.344   0.344   0.349   0.366   0.364   0.357   0.363   0.355   0.343   0.350   0.345   0.343   0.323   0.335   0.342   0.340   0.335   0.337   0.345   0.342   0.350   0.361   0.360   0.348   0.361   0.361
   135.85    0.341   0.336   0.326   0.314   0.323   0.332   0.328   0.349   0.338   0.334   0.332   0.346   0.360   0.351   0.344   0.346   0.336   0.341   0.338   0.336   0.338   0.338   0.333   0.331   0.335   0.341   0.341   0.343   0.351   0.342   0.342   0.353   0.351   0.344   0.347
   131.20    0.336   0.333   0.323   0.315   0.327   0.323   0.327   0.332   0.320   0.327   0.340   0.340   0.359   0.354   0.342   0.332   0.331   0.329   0.337   0.330   0.331   0.337   0.347   0.332   0.337   0.342   0.332   0.336   0.348   0.338   0.342   0.338   0.346   0.348   0.343
   126.55    0.347   0.351   0.348   0.331   0.334   0.331   0.328   0.321   0.327   0.326   0.347   0.341   0.344   0.338   0.327   0.338   0.337   0.336   0.330   0.333   0.332   0.331   0.341   0.343   0.339   0.329   0.334   0.334   0.333   0.343   0.348   0.364   0.342   0.344   0.341
   121.90    0.352   0.362   0.355   0.329   0.335   0.329   0.318   0.319   0.317   0.321   0.328   0.354   0.335   0.332   0.336   0.334   0.335   0.336   0.342   0.346   0.329   0.327   0.329   0.355   0.354   0.342   0.350   0.329   0.341   0.339   0.356   0.346   0.357   0.342   0.325
   117.25    0.348   0.353   0.367   0.343   0.342   0.329   0.319   0.326   0.327   0.334   0.343   0.340   0.343   0.334   0.328   0.326   0.342   0.340   0.336   0.338   0.324   0.337   0.331   0.343   0.342   0.339   0.337   0.340   0.352   0.356   0.359   0.350   0.336   0.338   0.331
   112.60    0.348   0.350   0.338   0.342   0.335   0.333   0.332   0.341   0.328   0.329   0.334   0.344   0.329   0.329   0.330   0.327   0.326   0.327   0.336   0.338   0.334   0.343   0.342   0.352   0.362   0.342   0.339   0.346   0.331   0.344   0.335   0.342   0.351   0.342   0.329
   107.95    0.350   0.336   0.334   0.333   0.334   0.334   0.331   0.323   0.339   0.337   0.336   0.328   0.340   0.331   0.324   0.335   0.344   0.331   0.333   0.335   0.341   0.350   0.350   0.363   0.366   0.346   0.335   0.338   0.324   0.337   0.335   0.336   0.343   0.348   0.345
   103.30    0.342   0.339   0.332   0.334   0.330   0.332   0.333   0.326   0.333   0.328   0.333   0.323   0.336   0.345   0.339   0.344   0.347   0.341   0.343   0.330   0.343   0.362   0.361   0.363   0.364   0.364   0.340   0.343   0.326   0.330   0.339   0.338   0.342   0.340   0.354
    98.65    0.343   0.338   0.341   0.344   0.335   0.327   0.318   0.328   0.329   0.331   0.330   0.332   0.326   0.348   0.343   0.337   0.332   0.341   0.354   0.360   0.369   0.350   0.350   0.369   0.350   0.346   0.344   0.339   0.333   0.320   0.327   0.329   0.337   0.348   0.351
    94.00    0.346   0.330   0.334   0.341   0.341   0.327   0.329   0.335   0.347   0.331   0.329   0.324   0.341   0.345   0.357   0.346   0.327   0.337   0.352   0.353   0.343   0.351   0.342   0.347   0.350   0.336   0.348   0.344   0.321   0.330   0.334   0.342   0.338   0.338   0.342
    89.35    0.332   0.331   0.331   0.330   0.339   0.341   0.338   0.337   0.335   0.338   0.331   0.348   0.338   0.347   0.346   0.337   0.335   0.329   0.345   0.349   0.342   0.342   0.346   0.341   0.335   0.341   0.342   0.336   0.338   0.339   0.341   0.336   0.326   0.339   0.348
    84.70    0.348   0.339   0.334   0.329   0.335   0.336   0.353   0.351   0.351   0.355   0.337   0.349   0.342   0.328   0.324   0.336   0.333   0.329   0.338   0.344   0.343   0.347   0.339   0.336   0.328   0.327   0.333   0.319   0.333   0.339   0.336   0.326   0.339   0.342   0.341
    80.05    0.350   0.342   0.348   0.334   0.328   0.329   0.346   0.360   0.362   0.352   0.352   0.333   0.347   0.344   0.323   0.325   0.338   0.342   0.340   0.349   0.335   0.335   0.334   0.325   0.337   0.334   0.325   0.328   0.327   0.322   0.318   0.328   0.330   0.344   0.337
    75.40    0.339   0.338   0.332   0.326   0.333   0.345   0.347   0.358   0.371   0.373   0.354   0.353   0.345   0.336   0.336   0.337   0.331   0.343   0.353   0.348   0.342   0.346   0.324   0.331   0.345   0.323   0.330   0.327   0.324   0.322   0.320   0.320   0.332   0.331   0.335
    70.75    0.341   0.331   0.336   0.332   0.339   0.350   0.353   0.351   0.361   0.368   0.357   0.337   0.317   0.324   0.331   0.327   0.333   0.348   0.355   0.356   0.354   0.363   0.344   0.350   0.334   0.327   0.334   0.326   0.325   0.322   0.312   0.314   0.327   0.321   0.342
    66.10    0.332   0.332   0.345   0.349   0.356   0.364   0.361   0.356   0.351   0.351   0.355   0.342   0.334   0.336   0.329   0.320   0.329   0.344   0.351   0.358   0.362   0.348   0.341   0.345   0.344   0.328   0.326   0.334   0.326   0.319   0.322   0.325   0.334   0.330   0.336
    61.45    0.335   0.337   0.349   0.349   0.354   0.362   0.362   0.348   0.351   0.328   0.341   0.347   0.335   0.338   0.336   0.333   0.338   0.337   0.338   0.344   0.342   0.328   0.338   0.353   0.332   0.325   0.331   0.335   0.335   0.330   0.326   0.318   0.331   0.326   0.320
    56.80    0.336   0.344   0.352   0.349   0.350   0.371   0.369   0.341   0.356   0.343   0.336   0.354   0.349   0.348   0.348   0.346   0.337   0.345   0.332   0.328   0.328   0.325   0.334   0.338   0.325   0.340   0.340   0.335   0.334   0.336   0.325   0.329   0.324   0.322   0.315
    52.15    0.355   0.366   0.350   0.350   0.351   0.355   0.363   0.361   0.365   0.361   0.346   0.357   0.369   0.352   0.339   0.331   0.342   0.336   0.334   0.331   0.316   0.327   0.340   0.345   0.339   0.347   0.339   0.341   0.345   0.342   0.334   0.331   0.327   0.314   0.305
    47.50    0.354   0.353   0.351   0.342   0.337   0.346   0.351   0.356   0.359   0.358   0.353   0.350   0.364   0.347   0.348   0.350   0.363   0.347   0.334   0.335   0.325   0.341   0.332   0.360   0.353   0.338   0.343   0.346   0.353   0.346   0.330   0.328   0.321   0.319   0.329
    42.85    0.349   0.348   0.343   0.337   0.339   0.349   0.350   0.340   0.353   0.341   0.349   0.340   0.353   0.348   0.357   0.365   0.361   0.352   0.352   0.343   0.339   0.352   0.339   0.347   0.372   0.348   0.339   0.337   0.339   0.342   0.329   0.330   0.336   0.332   0.329
    38.20    0.348   0.341   0.359   0.359   0.341   0.361   0.353   0.343   0.342   0.346   0.332   0.342   0.333   0.353   0.350   0.358   0.361   0.354   0.352   0.346   0.346   0.345   0.348   0.370   0.360   0.353   0.333   0.332   0.320   0.332   0.329   0.337   0.345   0.338   0.327
    33.55    0.332   0.335   0.357   0.362   0.352   0.353   0.357   0.347   0.332   0.320   0.342   0.346   0.339   0.328   0.355   0.363   0.377   0.357   0.353   0.354   0.346   0.349   0.344   0.355   0.349   0.346   0.359   0.340   0.327   0.330   0.333   0.324   0.329   0.342   0.331
    28.90    0.341   0.346   0.344   0.360   0.354   0.355   0.362   0.361   0.337   0.333   0.348   0.349   0.349   0.341   0.355   0.359   0.364   0.374   0.356   0.346   0.350   0.352   0.358   0.347   0.335   0.342   0.352   0.334   0.332   0.331   0.337   0.329   0.338   0.351   0.341
    24.25    0.337   0.344   0.347   0.352   0.346   0.355   0.356   0.353   0.346   0.336   0.338   0.325   0.340   0.329   0.334   0.347   0.348   0.364   0.356   0.338   0.346   0.356   0.352   0.336   0.343   0.343   0.345   0.348   0.341   0.347   0.340   0.344   0.352   0.347   0.357
    19.60    0.343   0.339   0.331   0.344   0.335   0.342   0.344   0.333   0.329   0.334   0.333   0.327   0.335   0.337   0.317   0.343   0.343   0.346   0.349   0.341   0.359   0.354   0.357   0.344   0.336   0.345   0.336   0.344   0.351   0.339   0.345   0.346   0.350   0.349   0.365
    14.95    0.339   0.336   0.339   0.345   0.340   0.342   0.333   0.326   0.337   0.339   0.324   0.329   0.337   0.330   0.315   0.332   0.336   0.337   0.360   0.353   0.350   0.339   0.351   0.348   0.337   0.342   0.343   0.349   0.345   0.336   0.339   0.347   0.351   0.354   0.358
    10.30    0.338   0.336   0.339   0.338   0.349   0.346   0.325   0.338   0.345   0.342   0.329   0.335   0.337   0.321   0.323   0.336   0.338   0.355   0.362   0.368   0.348   0.352   0.339   0.348   0.347   0.359   0.345   0.338   0.340   0.338   0.340   0.345   0.350   0.358   0.352
     5.65    0.335   0.329   0.339   0.339   0.332   0.324   0.332   0.343   0.347   0.356   0.355   0.343   0.335   0.340   0.344   0.346   0.358   0.354   0.342   0.366   0.359   0.359   0.348   0.356   0.365   0.355   0.355   0.345   0.343   0.336   0.340   0.329   0.328   0.347   0.351
     1.00    0.343   0.335   0.337   0.335   0.332   0.333   0.338   0.349   0.343   0.357   0.355   0.343   0.342   0.349   0.353   0.349   0.356   0.366   0.361   0.355   0.365   0.355   0.351   0.354   0.365   0.355   0.355   0.354   0.346   0.340   0.344   0.332   0.339   0.334   0.333

   Mean standard deviation across all grid points:
      u component:    0.580 m/s
      v component:    0.603 m/s
      w component:    0.343 m/s


U-component (X) statistics from the interpolated hub point:

   Mean =   9.9913 m/s
   TI   =   5.5935 %


Processing complete.  5403.8 CPU seconds used.
