
This summary file was generated by TurbSim (from OpenFAST-v3.5.3) on 20-Apr-2025 at 08:21:24.


Runtime Options:

**********  Random seed #1
    RANLUX  Type of random number generator
         F  Output binary HH turbulence parameters?
         F  Output formatted turbulence parameters?
         F  Output AeroDyn HH files?
         T  Output AeroDyn FF files?
         F  Output BLADED FF files?
         F  Output tower data?
         F  Output HAWC FF files?
         F  Output formatted FF files?
         T  Output coherent turbulence time step file?
 0 -  NONE  IEC turbulence models scaled to exact specified standard deviation


Turbine/Model Specifications:

        37  Vertical grid-point matrix dimension
        35  Horizontal grid-point matrix dimension
     0.250  Time step [seconds]
   900.000  Analysis time [seconds]
   900.000  Usable output time [seconds]
    89.350  Hub height [m]
   167.400  Grid height [m]
   158.100  Grid width [m]
     0.000  Vertical flow angle [degrees]
     0.000  Horizontal flow angle [degrees]


Meteorological Boundary Conditions:

    TIMESR  User-input time series spectral model
       N/A  IEC standard
       N/A  IEC turbulence characteristic
       N/A  IEC turbulence type
       N/A  IEC Extreme Turbulence Model (ETM) "c" parameter [m/s]
       PL   Wind profile type
    90.000  Reference height [m]
    10.000  Reference wind speed [m/s]
       N/A  Jet height [m]
     0.120  Power law exponent
     0.030  Surface roughness length [m]


Non-IEC Meteorological Boundary Conditions:

    45.000  Site latitude [degrees]
     0.050  Gradient Richardson number
     0.480  Friction or shear velocity [m/s]
       N/A  Mixing layer depth [m]
       N/A  Mean hub u'w' Reynolds stress
       N/A  Mean hub u'v' Reynolds stress
       N/A  Mean hub v'w' Reynolds stress


Spatial Coherence Models:

       IEC  u-component coherence model
       IEC  v-component coherence model
       IEC  w-component coherence model
(   12.000, 0.353E-03)  u-component coherence parameters
(   12.000, 0.353E-03)  v-component coherence parameters
(   12.000, 0.353E-03)  w-component coherence parameters
       N/A  Coherence exponent


Coherent Turbulence Scaling Parameters:

.\EventData
            Name of the path containing the coherent turbulence data files
       les  Type of coherent turbulence data files
     1.000  Disturbance scale (ratio of wave height to rotor diameter)
     0.500  Fractional location of tower centerline from right
     0.500  Fractional location of hub height from the bottom of the dataset
    30.000  Minimum start time for coherent structures [seconds]


Profiles from User-Defined Time-Series Input:

  Height   Wind Speed   Horizontal Angle   Vertical Angle
   (m)        (m/s)          (deg)              (deg)    
  ------   ----------   ----------------   --------------
   94.00      10.00          -0.63               -0.00


You have requested that the following file(s) be generated:

   /kfs3/scratch/agupta/Projects/RL_Incubator/FinalRuns_Veer/Seed4/./FFSim_Seed4/Cond00_v10.0_PL0.12_TI7.5/Case2_wdirp04/Seed_2/TurbSim/HighT18.bts (AeroDyn/TurbSim full-field wind file)


Turbulence Simulation Scaling Parameter Summary:

   Turbulence model used                            =  User-input time series
   Gradient Richardson number                       =    0.050
   Monin-Obukhov (M-O) z/L parameter                =    0.067
   Monin-Obukhov (M-O) length scale                 = 1340.250 m
   Mean wind speed at hub height                    =    9.991 m/s

   Wind profile type                                =  Power law
   Power law exponent                               =    0.120
   Mean shear across rotor disk                     =    0.019 (m/s)/m
   Assumed rotor diameter                           =  158.100 m
   Surface roughness length                         =    0.030 m

   Nyquist frequency of turbulent wind field        =    2.000 Hz

   Number of time steps in the FFT                  =     3600
   Number of time steps output                      =     3600
   Number of points simulated                       =     1296


Mean Flow Angles:

   Vertical   =   0.0 degrees
   Horizontal =   0.0 degrees

Mean Wind Speed Profile:

   Height    Wind Speed   Horizontal Angle  Vertical Angle  U-comp (X)   V-comp (Y)   W-comp (Z)
     (m)        (m/s)         (degrees)       (degrees)       (m/s)        (m/s)        (m/s)   
   ------    ----------   ----------------  --------------  ----------   ----------   ----------
    168.4       10.78            0.00            0.00         10.78         0.00         0.00
    163.7       10.74            0.00            0.00         10.74         0.00         0.00
    159.1       10.71            0.00            0.00         10.71         0.00         0.00
    154.4       10.67            0.00            0.00         10.67         0.00         0.00
    149.8       10.63            0.00            0.00         10.63         0.00         0.00
    145.1       10.59            0.00            0.00         10.59         0.00         0.00
    140.5       10.55            0.00            0.00         10.55         0.00         0.00
    135.8       10.51            0.00            0.00         10.51         0.00         0.00
    131.2       10.46            0.00            0.00         10.46         0.00         0.00
    126.5       10.42            0.00            0.00         10.42         0.00         0.00
    121.9       10.37            0.00            0.00         10.37         0.00         0.00
    117.2       10.32            0.00            0.00         10.32         0.00         0.00
    112.6       10.27            0.00            0.00         10.27         0.00         0.00
    107.9       10.22            0.00            0.00         10.22         0.00         0.00
    103.3       10.17            0.00            0.00         10.17         0.00         0.00
     98.6       10.11            0.00            0.00         10.11         0.00         0.00
     94.0       10.05            0.00            0.00         10.05         0.00         0.00
     89.3        9.99            0.00            0.00          9.99         0.00         0.00
     84.7        9.93            0.00            0.00          9.93         0.00         0.00
     80.0        9.86            0.00            0.00          9.86         0.00         0.00
     75.4        9.79            0.00            0.00          9.79         0.00         0.00
     70.7        9.72            0.00            0.00          9.72         0.00         0.00
     66.1        9.64            0.00            0.00          9.64         0.00         0.00
     61.4        9.55            0.00            0.00          9.55         0.00         0.00
     56.8        9.46            0.00            0.00          9.46         0.00         0.00
     52.1        9.37            0.00            0.00          9.37         0.00         0.00
     47.5        9.26            0.00            0.00          9.26         0.00         0.00
     42.8        9.15            0.00            0.00          9.15         0.00         0.00
     38.2        9.02            0.00            0.00          9.02         0.00         0.00
     33.5        8.88            0.00            0.00          8.88         0.00         0.00
     28.9        8.73            0.00            0.00          8.73         0.00         0.00
     24.2        8.54            0.00            0.00          8.54         0.00         0.00
     19.6        8.33            0.00            0.00          8.33         0.00         0.00
     14.9        8.06            0.00            0.00          8.06         0.00         0.00
     10.3        7.71            0.00            0.00          7.71         0.00         0.00
      5.6        7.17            0.00            0.00          7.17         0.00         0.00
      1.0        5.83            0.00            0.00          5.83         0.00         0.00


Harvested Random Seeds after Generation of the Random Numbers:

     65026800 K 1
            0 K 2


Hub-Height Simulated Turbulence Statistical Summary:

   Type of Wind        Min (m/s)   Mean (m/s)    Max (m/s)  Sigma (m/s)       TI (%)
   ----------------    ---------   ----------    ---------  -----------       ------
   Longitudinal (u)         7.38         9.99        12.48        0.741        7.421
   Lateral (v)             -2.43         0.00         2.18        0.622        6.221
   Vertical (w)            -1.45        -0.00         1.22        0.366        3.660
   U component              7.38         9.99        12.48        0.741        7.421
   V component             -2.43         0.00         2.18        0.622        6.221
   W component             -1.45        -0.00         1.22        0.366        3.660
   Horizontal (U&V)         7.39        10.01        12.52        0.740        7.387
   Total                    7.41        10.02        12.52        0.739        7.378

                       Min Reynolds     Mean Reynolds    Max Reynolds    Correlation
   Product             Stress (m/s)^2   Stress (m/s)^2   Stress (m/s)^2  Coefficient
   ----------------    --------------   --------------   --------------  -----------
   u'w'                     -1.187             0.034             1.693         0.127
   u'v'                     -2.207             0.021             3.575         0.046
   v'w'                     -2.937            -0.006             1.364        -0.025


   Friction Velocity (Ustar)  =      0.185 m/s
   Maximum Instantaneous TKE  =      3.732 (m/s)^2
   Maximum Instantaneous CTKE =      1.833 (m/s)^2


Grid Point Variance Summary:

   Y-coord  -79.05  -74.40  -69.75  -65.10  -60.45  -55.80  -51.15  -46.50  -41.85  -37.20  -32.55  -27.90  -23.25  -18.60  -13.95   -9.30   -4.65    0.00    4.65    9.30   13.95   18.60   23.25   27.90   32.55   37.20   41.85   46.50   51.15   55.80   60.45   65.10   69.75   74.40   79.05

   Height   Standard deviation at grid points for the u component:
   168.40    0.620   0.629   0.639   0.625   0.644   0.675   0.674   0.637   0.633   0.639   0.645   0.659   0.621   0.643   0.626   0.695   0.690   0.713   0.671   0.721   0.712   0.700   0.716   0.752   0.733   0.714   0.676   0.655   0.665   0.667   0.694   0.676   0.665   0.747   0.774
   163.75    0.583   0.637   0.637   0.677   0.686   0.655   0.652   0.610   0.664   0.645   0.704   0.668   0.664   0.649   0.656   0.706   0.762   0.757   0.711   0.719   0.763   0.692   0.695   0.693   0.703   0.644   0.692   0.674   0.704   0.722   0.683   0.669   0.711   0.748   0.793
   159.10    0.602   0.572   0.659   0.656   0.641   0.652   0.630   0.606   0.663   0.669   0.662   0.690   0.703   0.673   0.672   0.745   0.718   0.750   0.733   0.729   0.737   0.725   0.674   0.648   0.681   0.638   0.665   0.675   0.711   0.714   0.696   0.703   0.729   0.713   0.756
   154.45    0.607   0.582   0.614   0.667   0.662   0.671   0.617   0.625   0.646   0.695   0.687   0.669   0.743   0.744   0.731   0.768   0.743   0.740   0.734   0.668   0.681   0.689   0.679   0.680   0.697   0.681   0.638   0.630   0.684   0.698   0.675   0.732   0.730   0.691   0.693
   149.80    0.634   0.608   0.638   0.669   0.677   0.655   0.644   0.667   0.631   0.693   0.703   0.699   0.720   0.765   0.717   0.740   0.777   0.767   0.682   0.706   0.706   0.665   0.673   0.651   0.676   0.654   0.644   0.688   0.682   0.672   0.698   0.720   0.705   0.700   0.678
   145.15    0.656   0.624   0.658   0.676   0.691   0.669   0.668   0.673   0.681   0.701   0.708   0.719   0.725   0.756   0.747   0.752   0.765   0.773   0.707   0.705   0.672   0.673   0.691   0.675   0.693   0.694   0.682   0.702   0.698   0.705   0.724   0.705   0.694   0.671   0.686
   140.50    0.638   0.637   0.645   0.679   0.720   0.698   0.647   0.663   0.670   0.697   0.723   0.739   0.735   0.755   0.726   0.698   0.732   0.766   0.739   0.774   0.703   0.709   0.687   0.652   0.722   0.706   0.693   0.701   0.675   0.710   0.690   0.718   0.703   0.700   0.660
   135.85    0.682   0.685   0.715   0.675   0.683   0.696   0.621   0.648   0.676   0.712   0.713   0.706   0.722   0.709   0.738   0.648   0.695   0.725   0.762   0.774   0.742   0.709   0.697   0.711   0.762   0.738   0.728   0.704   0.705   0.713   0.728   0.749   0.771   0.704   0.713
   131.20    0.693   0.678   0.693   0.653   0.630   0.652   0.624   0.617   0.675   0.684   0.692   0.657   0.661   0.696   0.679   0.652   0.663   0.721   0.739   0.778   0.756   0.733   0.756   0.737   0.735   0.747   0.773   0.715   0.722   0.710   0.733   0.718   0.719   0.740   0.711
   126.55    0.702   0.676   0.661   0.629   0.619   0.639   0.622   0.640   0.644   0.650   0.693   0.683   0.690   0.664   0.689   0.670   0.684   0.714   0.745   0.747   0.748   0.718   0.752   0.725   0.703   0.731   0.760   0.764   0.748   0.749   0.777   0.729   0.701   0.762   0.761
   121.90    0.678   0.655   0.624   0.664   0.612   0.624   0.592   0.654   0.677   0.714   0.729   0.687   0.609   0.637   0.671   0.644   0.702   0.660   0.713   0.702   0.708   0.734   0.733   0.673   0.728   0.687   0.750   0.753   0.752   0.758   0.791   0.788   0.748   0.770   0.812
   117.25    0.730   0.678   0.680   0.674   0.658   0.596   0.642   0.654   0.668   0.688   0.697   0.658   0.578   0.569   0.595   0.622   0.642   0.650   0.667   0.703   0.734   0.728   0.742   0.712   0.708   0.709   0.726   0.720   0.757   0.797   0.788   0.744   0.753   0.774   0.779
   112.60    0.738   0.663   0.677   0.643   0.606   0.623   0.630   0.643   0.685   0.652   0.680   0.645   0.593   0.562   0.572   0.603   0.629   0.677   0.673   0.738   0.742   0.702   0.715   0.712   0.722   0.691   0.725   0.744   0.717   0.767   0.758   0.761   0.741   0.758   0.773
   107.95    0.726   0.683   0.674   0.625   0.605   0.624   0.630   0.653   0.664   0.646   0.697   0.672   0.581   0.556   0.553   0.594   0.630   0.692   0.693   0.714   0.730   0.692   0.694   0.682   0.741   0.745   0.737   0.767   0.771   0.775   0.748   0.781   0.785   0.750   0.741
   103.30    0.682   0.689   0.692   0.698   0.631   0.606   0.570   0.656   0.667   0.660   0.661   0.624   0.593   0.555   0.583   0.627   0.620   0.682   0.757   0.746   0.733   0.698   0.701   0.683   0.771   0.722   0.731   0.751   0.793   0.765   0.791   0.793   0.786   0.763   0.802
    98.65    0.694   0.702   0.695   0.679   0.655   0.657   0.614   0.635   0.635   0.638   0.599   0.650   0.623   0.570   0.593   0.623   0.656   0.686   0.716   0.758   0.727   0.692   0.670   0.710   0.765   0.734   0.712   0.760   0.792   0.796   0.777   0.783   0.747   0.777   0.789
    94.00    0.655   0.672   0.677   0.688   0.669   0.670   0.628   0.618   0.629   0.631   0.620   0.635   0.631   0.579   0.586   0.639   0.673   0.727   0.721   0.722   0.776   0.715   0.713   0.671   0.712   0.700   0.752   0.783   0.796   0.813   0.783   0.802   0.756   0.738   0.754
    89.35    0.634   0.637   0.646   0.615   0.618   0.650   0.627   0.605   0.650   0.658   0.625   0.594   0.621   0.647   0.664   0.660   0.655   0.741   0.739   0.729   0.773   0.755   0.704   0.694   0.708   0.726   0.741   0.783   0.811   0.777   0.733   0.772   0.768   0.723   0.743
    84.70    0.665   0.631   0.631   0.604   0.577   0.602   0.646   0.643   0.665   0.636   0.575   0.598   0.619   0.634   0.673   0.662   0.699   0.720   0.699   0.709   0.716   0.744   0.703   0.740   0.724   0.736   0.758   0.800   0.801   0.785   0.770   0.762   0.744   0.747   0.797
    80.05    0.633   0.619   0.587   0.567   0.623   0.604   0.662   0.633   0.653   0.657   0.609   0.598   0.621   0.628   0.620   0.649   0.697   0.724   0.707   0.768   0.695   0.703   0.743   0.776   0.733   0.726   0.765   0.784   0.730   0.755   0.747   0.787   0.780   0.737   0.748
    75.40    0.676   0.689   0.601   0.573   0.628   0.621   0.655   0.639   0.646   0.665   0.595   0.569   0.607   0.607   0.671   0.705   0.678   0.686   0.705   0.702   0.698   0.730   0.734   0.759   0.753   0.737   0.779   0.776   0.727   0.738   0.727   0.777   0.733   0.762   0.720
    70.75    0.687   0.689   0.627   0.604   0.629   0.643   0.642   0.652   0.652   0.672   0.658   0.657   0.611   0.629   0.619   0.655   0.659   0.647   0.658   0.666   0.641   0.672   0.688   0.754   0.743   0.755   0.733   0.763   0.724   0.763   0.758   0.747   0.718   0.769   0.775
    66.10    0.741   0.726   0.709   0.658   0.618   0.653   0.658   0.660   0.672   0.678   0.671   0.640   0.645   0.655   0.639   0.631   0.624   0.660   0.660   0.670   0.627   0.622   0.664   0.703   0.738   0.723   0.764   0.740   0.759   0.753   0.791   0.780   0.763   0.768   0.765
    61.45    0.685   0.748   0.744   0.713   0.642   0.660   0.656   0.702   0.667   0.671   0.668   0.634   0.663   0.614   0.646   0.619   0.648   0.678   0.672   0.658   0.650   0.647   0.661   0.717   0.750   0.760   0.731   0.711   0.752   0.771   0.779   0.752   0.744   0.769   0.787
    56.80    0.761   0.767   0.713   0.673   0.670   0.669   0.626   0.674   0.687   0.626   0.658   0.651   0.621   0.628   0.640   0.664   0.665   0.655   0.640   0.621   0.639   0.646   0.679   0.730   0.714   0.698   0.725   0.721   0.714   0.722   0.702   0.729   0.751   0.772   0.791
    52.15    0.732   0.717   0.710   0.685   0.666   0.682   0.608   0.664   0.687   0.658   0.665   0.638   0.647   0.627   0.655   0.666   0.638   0.630   0.597   0.624   0.657   0.682   0.727   0.730   0.750   0.709   0.705   0.686   0.693   0.656   0.683   0.712   0.732   0.761   0.804
    47.50    0.675   0.672   0.662   0.656   0.667   0.665   0.621   0.657   0.663   0.655   0.604   0.627   0.609   0.621   0.653   0.660   0.668   0.638   0.664   0.624   0.655   0.672   0.683   0.731   0.697   0.707   0.728   0.741   0.732   0.721   0.689   0.725   0.776   0.776   0.763
    42.85    0.662   0.633   0.623   0.664   0.657   0.653   0.657   0.647   0.637   0.604   0.595   0.596   0.608   0.582   0.612   0.635   0.682   0.676   0.654   0.662   0.630   0.666   0.682   0.705   0.699   0.752   0.756   0.725   0.705   0.751   0.748   0.749   0.785   0.749   0.774
    38.20    0.664   0.641   0.617   0.656   0.641   0.660   0.657   0.681   0.587   0.637   0.645   0.645   0.593   0.594   0.638   0.631   0.644   0.662   0.663   0.647   0.660   0.652   0.626   0.699   0.748   0.733   0.760   0.746   0.782   0.714   0.740   0.746   0.751   0.761   0.813
    33.55    0.667   0.634   0.654   0.627   0.620   0.683   0.660   0.644   0.586   0.649   0.668   0.628   0.591   0.585   0.609   0.641   0.651   0.652   0.670   0.645   0.652   0.613   0.659   0.678   0.742   0.735   0.738   0.790   0.791   0.743   0.745   0.791   0.816   0.767   0.827
    28.90    0.628   0.630   0.633   0.627   0.644   0.640   0.627   0.610   0.625   0.637   0.640   0.587   0.608   0.587   0.589   0.623   0.665   0.625   0.651   0.628   0.649   0.689   0.652   0.645   0.700   0.760   0.756   0.797   0.784   0.758   0.752   0.764   0.837   0.812   0.820
    24.25    0.662   0.615   0.627   0.621   0.633   0.634   0.628   0.625   0.581   0.606   0.621   0.612   0.642   0.590   0.590   0.643   0.652   0.625   0.634   0.647   0.660   0.658   0.692   0.698   0.716   0.771   0.776   0.834   0.826   0.847   0.816   0.783   0.786   0.820   0.834
    19.60    0.639   0.637   0.630   0.607   0.611   0.621   0.631   0.594   0.594   0.602   0.564   0.616   0.620   0.607   0.621   0.668   0.655   0.630   0.684   0.675   0.681   0.692   0.703   0.725   0.748   0.747   0.752   0.795   0.802   0.817   0.797   0.774   0.779   0.765   0.835
    14.95    0.621   0.633   0.652   0.662   0.650   0.639   0.628   0.604   0.574   0.599   0.640   0.632   0.625   0.653   0.640   0.652   0.662   0.677   0.694   0.712   0.664   0.733   0.700   0.733   0.766   0.803   0.756   0.752   0.785   0.816   0.775   0.780   0.774   0.795   0.824
    10.30    0.646   0.633   0.669   0.700   0.674   0.631   0.634   0.626   0.643   0.625   0.648   0.686   0.641   0.666   0.640   0.653   0.668   0.640   0.637   0.675   0.709   0.749   0.734   0.766   0.783   0.822   0.790   0.757   0.784   0.787   0.800   0.794   0.801   0.821   0.827
     5.65    0.664   0.648   0.688   0.688   0.681   0.638   0.633   0.646   0.641   0.651   0.663   0.699   0.722   0.699   0.695   0.656   0.661   0.686   0.712   0.690   0.677   0.723   0.749   0.762   0.811   0.795   0.794   0.764   0.775   0.778   0.726   0.783   0.788   0.805   0.843
     1.00    0.655   0.693   0.684   0.701   0.672   0.630   0.614   0.654   0.663   0.651   0.721   0.724   0.783   0.753   0.758   0.740   0.705   0.704   0.713   0.717   0.700   0.683   0.740   0.766   0.807   0.794   0.788   0.798   0.764   0.775   0.716   0.774   0.730   0.807   0.797

   Height   Standard deviation at grid points for the v component:
   168.40    0.602   0.585   0.599   0.586   0.579   0.586   0.569   0.550   0.565   0.610   0.588   0.600   0.592   0.612   0.587   0.586   0.590   0.580   0.569   0.596   0.616   0.625   0.644   0.620   0.619   0.627   0.610   0.587   0.582   0.564   0.607   0.575   0.593   0.586   0.542
   163.75    0.577   0.571   0.610   0.609   0.590   0.589   0.557   0.559   0.595   0.608   0.604   0.609   0.598   0.596   0.585   0.574   0.583   0.588   0.579   0.579   0.613   0.623   0.611   0.612   0.604   0.583   0.563   0.555   0.550   0.564   0.582   0.560   0.544   0.551   0.560
   159.10    0.593   0.603   0.601   0.610   0.589   0.606   0.580   0.606   0.601   0.622   0.618   0.581   0.562   0.569   0.594   0.595   0.584   0.585   0.549   0.583   0.610   0.601   0.598   0.591   0.595   0.573   0.563   0.564   0.551   0.549   0.547   0.544   0.537   0.551   0.552
   154.45    0.554   0.578   0.601   0.582   0.601   0.623   0.615   0.611   0.616   0.633   0.627   0.610   0.582   0.586   0.596   0.585   0.601   0.601   0.612   0.605   0.579   0.576   0.578   0.595   0.585   0.588   0.574   0.563   0.558   0.555   0.534   0.530   0.552   0.526   0.551
   149.80    0.551   0.546   0.592   0.601   0.588   0.582   0.603   0.581   0.553   0.611   0.640   0.619   0.601   0.613   0.595   0.582   0.589   0.581   0.591   0.588   0.560   0.565   0.545   0.580   0.613   0.605   0.597   0.577   0.591   0.561   0.556   0.550   0.557   0.556   0.542
   145.15    0.565   0.583   0.586   0.598   0.580   0.582   0.548   0.569   0.586   0.603   0.617   0.622   0.616   0.559   0.597   0.562   0.566   0.577   0.571   0.574   0.551   0.576   0.567   0.586   0.615   0.601   0.604   0.582   0.572   0.571   0.564   0.551   0.562   0.569   0.590
   140.50    0.583   0.600   0.580   0.573   0.589   0.576   0.587   0.588   0.598   0.583   0.626   0.619   0.597   0.565   0.554   0.565   0.587   0.589   0.571   0.570   0.559   0.562   0.615   0.595   0.598   0.618   0.603   0.588   0.579   0.574   0.563   0.594   0.577   0.579   0.589
   135.85    0.597   0.606   0.567   0.572   0.565   0.565   0.579   0.596   0.611   0.602   0.617   0.592   0.588   0.551   0.555   0.558   0.567   0.569   0.550   0.545   0.561   0.554   0.565   0.594   0.609   0.606   0.603   0.607   0.605   0.597   0.588   0.578   0.609   0.594   0.599
   131.20    0.576   0.577   0.566   0.574   0.551   0.547   0.563   0.606   0.596   0.591   0.578   0.546   0.559   0.575   0.567   0.544   0.573   0.603   0.576   0.578   0.588   0.587   0.583   0.590   0.606   0.599   0.593   0.625   0.601   0.587   0.603   0.598   0.589   0.618   0.595
   126.55    0.550   0.556   0.548   0.551   0.524   0.529   0.543   0.569   0.575   0.567   0.549   0.544   0.530   0.548   0.553   0.534   0.558   0.595   0.573   0.571   0.566   0.573   0.585   0.604   0.606   0.592   0.582   0.588   0.581   0.599   0.637   0.612   0.600   0.568   0.567
   121.90    0.555   0.567   0.549   0.548   0.531   0.534   0.552   0.547   0.560   0.555   0.549   0.520   0.513   0.553   0.552   0.529   0.534   0.587   0.591   0.602   0.597   0.601   0.602   0.607   0.583   0.555   0.562   0.562   0.585   0.597   0.598   0.585   0.617   0.591   0.583
   117.25    0.559   0.532   0.530   0.546   0.532   0.532   0.523   0.546   0.546   0.547   0.567   0.544   0.547   0.554   0.539   0.569   0.555   0.574   0.568   0.591   0.561   0.590   0.593   0.583   0.577   0.542   0.573   0.562   0.575   0.585   0.580   0.580   0.588   0.582   0.581
   112.60    0.571   0.550   0.545   0.543   0.522   0.518   0.515   0.527   0.527   0.544   0.565   0.531   0.561   0.571   0.557   0.573   0.554   0.560   0.559   0.595   0.558   0.564   0.571   0.561   0.570   0.556   0.578   0.576   0.580   0.587   0.570   0.570   0.555   0.565   0.567
   107.95    0.547   0.560   0.548   0.545   0.536   0.535   0.528   0.535   0.565   0.561   0.573   0.581   0.564   0.559   0.575   0.597   0.586   0.577   0.593   0.587   0.540   0.546   0.573   0.591   0.600   0.572   0.553   0.568   0.568   0.591   0.584   0.579   0.564   0.580   0.566
   103.30    0.578   0.556   0.552   0.552   0.514   0.529   0.531   0.535   0.545   0.586   0.584   0.590   0.560   0.566   0.597   0.592   0.600   0.584   0.595   0.561   0.569   0.565   0.589   0.560   0.600   0.586   0.593   0.594   0.583   0.561   0.578   0.601   0.566   0.546   0.540
    98.65    0.591   0.570   0.588   0.543   0.522   0.551   0.543   0.530   0.559   0.547   0.542   0.552   0.568   0.577   0.597   0.588   0.605   0.580   0.594   0.566   0.587   0.572   0.564   0.588   0.601   0.617   0.595   0.594   0.593   0.581   0.577   0.576   0.548   0.539   0.542
    94.00    0.609   0.608   0.626   0.582   0.545   0.522   0.541   0.563   0.547   0.550   0.568   0.563   0.604   0.635   0.621   0.605   0.591   0.598   0.580   0.559   0.563   0.554   0.582   0.591   0.577   0.590   0.579   0.560   0.561   0.562   0.527   0.564   0.543   0.547   0.557
    89.35    0.637   0.629   0.605   0.563   0.586   0.542   0.554   0.560   0.579   0.583   0.589   0.596   0.604   0.605   0.616   0.624   0.596   0.622   0.621   0.570   0.562   0.569   0.568   0.586   0.550   0.573   0.574   0.565   0.554   0.543   0.543   0.551   0.551   0.557   0.592
    84.70    0.658   0.650   0.602   0.582   0.592   0.553   0.571   0.575   0.568   0.536   0.552   0.593   0.586   0.612   0.653   0.640   0.611   0.636   0.610   0.586   0.589   0.563   0.566   0.567   0.571   0.555   0.546   0.525   0.552   0.552   0.527   0.546   0.556   0.570   0.575
    80.05    0.636   0.612   0.597   0.570   0.560   0.585   0.556   0.562   0.589   0.567   0.570   0.595   0.617   0.626   0.648   0.629   0.646   0.645   0.612   0.584   0.563   0.546   0.576   0.567   0.540   0.549   0.561   0.520   0.537   0.542   0.522   0.536   0.552   0.576   0.563
    75.40    0.614   0.605   0.552   0.570   0.575   0.600   0.552   0.578   0.584   0.611   0.616   0.613   0.619   0.619   0.624   0.625   0.629   0.615   0.606   0.621   0.617   0.596   0.582   0.542   0.537   0.552   0.571   0.570   0.537   0.548   0.510   0.516   0.532   0.549   0.560
    70.75    0.607   0.599   0.570   0.583   0.570   0.599   0.568   0.568   0.587   0.616   0.607   0.604   0.623   0.615   0.623   0.609   0.614   0.644   0.622   0.639   0.619   0.594   0.591   0.566   0.537   0.570   0.589   0.572   0.560   0.533   0.526   0.523   0.512   0.527   0.539
    66.10    0.581   0.576   0.566   0.578   0.600   0.622   0.596   0.587   0.584   0.626   0.601   0.582   0.573   0.579   0.598   0.606   0.612   0.627   0.613   0.615   0.599   0.597   0.585   0.576   0.589   0.576   0.571   0.564   0.516   0.533   0.516   0.521   0.515   0.524   0.522
    61.45    0.597   0.568   0.597   0.615   0.636   0.637   0.614   0.566   0.583   0.594   0.549   0.569   0.563   0.604   0.560   0.601   0.577   0.598   0.623   0.604   0.592   0.567   0.593   0.587   0.574   0.542   0.544   0.538   0.544   0.536   0.526   0.507   0.525   0.530   0.523
    56.80    0.603   0.602   0.608   0.661   0.631   0.633   0.609   0.606   0.595   0.583   0.554   0.554   0.551   0.577   0.595   0.593   0.589   0.574   0.575   0.565   0.573   0.580   0.590   0.561   0.580   0.556   0.539   0.552   0.543   0.540   0.501   0.510   0.523   0.510   0.556
    52.15    0.607   0.601   0.631   0.657   0.638   0.626   0.630   0.600   0.578   0.562   0.553   0.549   0.551   0.567   0.566   0.560   0.577   0.553   0.568   0.569   0.578   0.581   0.570   0.561   0.550   0.547   0.563   0.533   0.525   0.545   0.516   0.515   0.506   0.521   0.530
    47.50    0.583   0.624   0.632   0.633   0.620   0.622   0.623   0.588   0.562   0.571   0.579   0.579   0.564   0.545   0.558   0.541   0.543   0.542   0.546   0.551   0.569   0.572   0.549   0.537   0.563   0.562   0.561   0.542   0.563   0.562   0.554   0.544   0.545   0.534   0.564
    42.85    0.633   0.610   0.609   0.620   0.616   0.636   0.657   0.587   0.584   0.588   0.580   0.568   0.565   0.555   0.553   0.516   0.498   0.508   0.536   0.548   0.582   0.589   0.573   0.531   0.542   0.537   0.540   0.516   0.562   0.582   0.572   0.579   0.561   0.558   0.570
    38.20    0.635   0.607   0.607   0.589   0.578   0.634   0.634   0.623   0.577   0.545   0.548   0.563   0.582   0.551   0.559   0.519   0.514   0.527   0.541   0.560   0.546   0.564   0.606   0.579   0.558   0.565   0.541   0.546   0.556   0.570   0.590   0.584   0.588   0.590   0.579
    33.55    0.602   0.585   0.591   0.570   0.577   0.622   0.617   0.604   0.576   0.552   0.548   0.569   0.578   0.554   0.528   0.540   0.547   0.552   0.533   0.564   0.537   0.562   0.567   0.556   0.555   0.560   0.564   0.566   0.560   0.600   0.576   0.583   0.584   0.568   0.579
    28.90    0.581   0.581   0.583   0.571   0.573   0.575   0.607   0.580   0.571   0.572   0.595   0.589   0.583   0.575   0.544   0.568   0.539   0.573   0.570   0.525   0.557   0.564   0.561   0.569   0.562   0.572   0.592   0.572   0.580   0.631   0.616   0.584   0.576   0.575   0.575
    24.25    0.573   0.553   0.563   0.593   0.569   0.577   0.586   0.617   0.604   0.598   0.574   0.560   0.578   0.580   0.574   0.575   0.558   0.537   0.563   0.530   0.551   0.563   0.557   0.575   0.590   0.572   0.591   0.607   0.609   0.624   0.596   0.606   0.581   0.592   0.591
    19.60    0.571   0.610   0.590   0.595   0.597   0.605   0.622   0.632   0.625   0.588   0.569   0.558   0.571   0.566   0.582   0.582   0.561   0.555   0.568   0.560   0.578   0.544   0.559   0.556   0.543   0.539   0.578   0.606   0.603   0.597   0.595   0.605   0.626   0.579   0.586
    14.95    0.600   0.638   0.593   0.604   0.611   0.639   0.643   0.626   0.593   0.590   0.534   0.553   0.561   0.558   0.577   0.609   0.605   0.567   0.565   0.544   0.554   0.544   0.559   0.534   0.508   0.519   0.542   0.572   0.631   0.605   0.632   0.641   0.642   0.616   0.595
    10.30    0.616   0.617   0.618   0.622   0.597   0.626   0.619   0.611   0.617   0.561   0.549   0.518   0.551   0.585   0.609   0.584   0.589   0.574   0.529   0.548   0.560   0.558   0.533   0.524   0.528   0.559   0.592   0.609   0.638   0.634   0.659   0.610   0.632   0.602   0.613
     5.65    0.603   0.610   0.628   0.618   0.594   0.632   0.602   0.592   0.589   0.567   0.541   0.515   0.543   0.573   0.589   0.601   0.582   0.588   0.553   0.535   0.545   0.556   0.546   0.515   0.550   0.567   0.582   0.613   0.639   0.634   0.631   0.622   0.613   0.586   0.590
     1.00    0.590   0.609   0.617   0.606   0.631   0.637   0.587   0.582   0.560   0.541   0.539   0.541   0.552   0.561   0.579   0.596   0.563   0.561   0.589   0.534   0.538   0.543   0.545   0.546   0.556   0.545   0.579   0.605   0.637   0.620   0.595   0.604   0.603   0.595   0.594

   Height   Standard deviation at grid points for the w component:
   168.40    0.400   0.385   0.375   0.377   0.361   0.351   0.349   0.365   0.367   0.374   0.369   0.375   0.389   0.389   0.394   0.379   0.360   0.360   0.366   0.357   0.340   0.349   0.351   0.370   0.368   0.361   0.366   0.377   0.372   0.373   0.368   0.362   0.364   0.359   0.361
   163.75    0.384   0.403   0.394   0.377   0.370   0.363   0.356   0.380   0.372   0.378   0.370   0.376   0.379   0.395   0.386   0.395   0.363   0.371   0.375   0.362   0.365   0.369   0.377   0.369   0.378   0.378   0.378   0.377   0.380   0.372   0.381   0.367   0.378   0.392   0.373
   159.10    0.384   0.391   0.396   0.393   0.360   0.365   0.365   0.386   0.389   0.386   0.377   0.369   0.368   0.375   0.384   0.402   0.377   0.380   0.387   0.383   0.370   0.372   0.381   0.382   0.383   0.384   0.389   0.378   0.383   0.377   0.373   0.383   0.383   0.376   0.380
   154.45    0.380   0.373   0.382   0.373   0.366   0.363   0.364   0.382   0.384   0.395   0.369   0.383   0.364   0.375   0.386   0.402   0.397   0.380   0.394   0.383   0.401   0.385   0.393   0.389   0.376   0.374   0.378   0.382   0.399   0.381   0.381   0.390   0.375   0.379   0.385
   149.80    0.362   0.366   0.367   0.366   0.361   0.367   0.372   0.385   0.403   0.383   0.370   0.373   0.376   0.366   0.381   0.379   0.384   0.390   0.383   0.387   0.405   0.407   0.395   0.388   0.380   0.394   0.387   0.399   0.389   0.395   0.385   0.390   0.379   0.382   0.377
   145.15    0.367   0.367   0.372   0.367   0.380   0.367   0.375   0.364   0.374   0.374   0.366   0.376   0.396   0.378   0.379   0.383   0.374   0.383   0.378   0.394   0.404   0.403   0.400   0.397   0.394   0.378   0.393   0.384   0.382   0.390   0.407   0.408   0.375   0.386   0.388
   140.50    0.364   0.358   0.371   0.392   0.383   0.355   0.365   0.361   0.367   0.359   0.364   0.366   0.377   0.375   0.371   0.372   0.380   0.382   0.396   0.388   0.402   0.413   0.390   0.399   0.405   0.398   0.374   0.394   0.394   0.395   0.402   0.391   0.391   0.390   0.400
   135.85    0.359   0.363   0.375   0.380   0.375   0.362   0.358   0.355   0.359   0.356   0.359   0.360   0.363   0.358   0.377   0.377   0.390   0.372   0.386   0.398   0.400   0.403   0.404   0.408   0.394   0.397   0.391   0.391   0.407   0.410   0.387   0.389   0.390   0.387   0.388
   131.20    0.367   0.374   0.383   0.376   0.378   0.374   0.357   0.358   0.360   0.371   0.369   0.368   0.371   0.369   0.375   0.380   0.390   0.368   0.379   0.391   0.373   0.388   0.388   0.400   0.402   0.402   0.405   0.411   0.428   0.413   0.402   0.390   0.395   0.395   0.401
   126.55    0.377   0.379   0.380   0.372   0.369   0.372   0.359   0.364   0.355   0.368   0.371   0.358   0.366   0.375   0.373   0.373   0.378   0.376   0.376   0.376   0.394   0.398   0.396   0.393   0.400   0.401   0.411   0.423   0.429   0.416   0.417   0.396   0.399   0.403   0.384
   121.90    0.387   0.380   0.375   0.360   0.368   0.360   0.360   0.364   0.367   0.386   0.368   0.361   0.371   0.372   0.384   0.375   0.361   0.357   0.371   0.393   0.399   0.405   0.390   0.392   0.406   0.403   0.409   0.413   0.424   0.412   0.397   0.399   0.406   0.403   0.398
   117.25    0.385   0.383   0.376   0.362   0.375   0.371   0.366   0.364   0.371   0.373   0.371   0.363   0.359   0.371   0.380   0.384   0.368   0.382   0.376   0.390   0.395   0.382   0.396   0.404   0.401   0.411   0.413   0.414   0.421   0.414   0.414   0.408   0.417   0.405   0.405
   112.60    0.386   0.391   0.378   0.367   0.371   0.381   0.377   0.387   0.395   0.392   0.381   0.372   0.373   0.373   0.376   0.365   0.366   0.375   0.385   0.391   0.388   0.397   0.386   0.398   0.404   0.399   0.393   0.406   0.395   0.406   0.409   0.402   0.407   0.412   0.424
   107.95    0.381   0.384   0.388   0.388   0.384   0.386   0.388   0.393   0.397   0.392   0.395   0.373   0.374   0.374   0.370   0.356   0.382   0.389   0.390   0.388   0.392   0.379   0.388   0.403   0.413   0.379   0.388   0.392   0.411   0.417   0.405   0.403   0.408   0.413   0.414
   103.30    0.372   0.374   0.396   0.393   0.400   0.393   0.399   0.397   0.388   0.380   0.385   0.363   0.352   0.366   0.369   0.367   0.378   0.396   0.397   0.393   0.397   0.387   0.397   0.400   0.403   0.391   0.385   0.387   0.387   0.392   0.405   0.411   0.404   0.401   0.415
    98.65    0.375   0.380   0.378   0.396   0.398   0.389   0.396   0.401   0.390   0.365   0.373   0.361   0.362   0.365   0.372   0.361   0.363   0.384   0.389   0.381   0.385   0.383   0.394   0.410   0.409   0.414   0.408   0.407   0.388   0.386   0.394   0.391   0.403   0.396   0.391
    94.00    0.381   0.391   0.393   0.395   0.385   0.385   0.399   0.405   0.387   0.383   0.378   0.359   0.370   0.361   0.360   0.362   0.371   0.377   0.383   0.377   0.386   0.388   0.407   0.399   0.403   0.413   0.414   0.412   0.406   0.396   0.380   0.372   0.380   0.381   0.385
    89.35    0.389   0.386   0.388   0.399   0.387   0.380   0.397   0.400   0.403   0.410   0.387   0.367   0.387   0.375   0.365   0.360   0.365   0.366   0.370   0.380   0.393   0.393   0.385   0.391   0.407   0.414   0.397   0.408   0.409   0.415   0.395   0.377   0.363   0.373   0.390
    84.70    0.388   0.377   0.384   0.397   0.400   0.404   0.400   0.403   0.402   0.395   0.388   0.378   0.376   0.373   0.360   0.364   0.369   0.366   0.361   0.388   0.396   0.384   0.372   0.389   0.410   0.396   0.384   0.400   0.403   0.415   0.378   0.356   0.352   0.368   0.378
    80.05    0.387   0.387   0.387   0.397   0.403   0.407   0.399   0.391   0.393   0.398   0.374   0.389   0.371   0.366   0.360   0.372   0.361   0.351   0.372   0.379   0.383   0.373   0.387   0.394   0.394   0.391   0.396   0.392   0.383   0.412   0.380   0.370   0.352   0.363   0.361
    75.40    0.390   0.389   0.390   0.400   0.408   0.398   0.388   0.375   0.387   0.395   0.375   0.383   0.373   0.381   0.386   0.390   0.372   0.370   0.354   0.362   0.368   0.380   0.380   0.377   0.370   0.392   0.391   0.386   0.390   0.401   0.378   0.381   0.370   0.369   0.359
    70.75    0.379   0.384   0.399   0.401   0.394   0.390   0.370   0.375   0.383   0.384   0.373   0.369   0.370   0.389   0.384   0.378   0.371   0.362   0.369   0.367   0.363   0.364   0.372   0.380   0.371   0.371   0.366   0.374   0.389   0.391   0.378   0.384   0.369   0.372   0.360
    66.10    0.371   0.386   0.393   0.401   0.393   0.376   0.363   0.378   0.378   0.382   0.369   0.361   0.366   0.362   0.361   0.366   0.360   0.375   0.368   0.373   0.362   0.367   0.371   0.372   0.365   0.353   0.352   0.362   0.355   0.370   0.372   0.364   0.378   0.372   0.373
    61.45    0.362   0.372   0.383   0.397   0.390   0.373   0.374   0.378   0.382   0.386   0.371   0.362   0.375   0.375   0.356   0.346   0.356   0.365   0.368   0.375   0.365   0.368   0.369   0.369   0.365   0.343   0.355   0.355   0.350   0.367   0.358   0.375   0.382   0.363   0.362
    56.80    0.372   0.365   0.376   0.382   0.377   0.375   0.379   0.381   0.366   0.351   0.369   0.370   0.368   0.370   0.359   0.358   0.363   0.373   0.365   0.362   0.381   0.371   0.353   0.354   0.358   0.361   0.354   0.364   0.365   0.366   0.351   0.346   0.364   0.358   0.356
    52.15    0.396   0.374   0.374   0.382   0.376   0.381   0.378   0.376   0.373   0.379   0.364   0.372   0.364   0.365   0.366   0.372   0.370   0.365   0.359   0.359   0.368   0.362   0.361   0.349   0.358   0.364   0.364   0.351   0.363   0.361   0.350   0.351   0.346   0.360   0.367
    47.50    0.390   0.392   0.373   0.371   0.382   0.371   0.379   0.380   0.375   0.377   0.370   0.350   0.374   0.373   0.368   0.380   0.357   0.376   0.366   0.358   0.365   0.348   0.353   0.345   0.356   0.364   0.349   0.351   0.357   0.359   0.364   0.353   0.359   0.372   0.384
    42.85    0.384   0.385   0.383   0.382   0.387   0.371   0.370   0.378   0.374   0.381   0.376   0.372   0.362   0.374   0.363   0.376   0.369   0.366   0.368   0.362   0.360   0.355   0.357   0.355   0.343   0.345   0.340   0.348   0.350   0.348   0.360   0.358   0.364   0.371   0.379
    38.20    0.392   0.379   0.373   0.377   0.371   0.376   0.376   0.387   0.385   0.393   0.374   0.369   0.368   0.386   0.385   0.378   0.367   0.359   0.364   0.349   0.373   0.377   0.371   0.356   0.346   0.342   0.346   0.350   0.350   0.356   0.349   0.369   0.370   0.390   0.404
    33.55    0.381   0.376   0.379   0.376   0.379   0.375   0.368   0.373   0.385   0.388   0.373   0.390   0.391   0.384   0.375   0.374   0.362   0.363   0.369   0.370   0.372   0.367   0.363   0.354   0.348   0.340   0.331   0.341   0.349   0.347   0.363   0.374   0.383   0.376   0.414
    28.90    0.400   0.394   0.387   0.374   0.368   0.368   0.362   0.374   0.382   0.392   0.377   0.377   0.380   0.393   0.372   0.349   0.356   0.358   0.371   0.374   0.369   0.368   0.360   0.347   0.351   0.344   0.339   0.346   0.343   0.357   0.369   0.369   0.385   0.399   0.406
    24.25    0.383   0.407   0.383   0.383   0.384   0.368   0.381   0.371   0.374   0.394   0.374   0.376   0.378   0.375   0.381   0.372   0.353   0.360   0.360   0.369   0.363   0.366   0.367   0.353   0.349   0.363   0.340   0.356   0.368   0.352   0.373   0.368   0.384   0.398   0.396
    19.60    0.383   0.393   0.386   0.379   0.370   0.374   0.391   0.363   0.378   0.386   0.384   0.379   0.381   0.389   0.389   0.381   0.367   0.362   0.361   0.352   0.372   0.363   0.366   0.345   0.352   0.355   0.339   0.360   0.367   0.364   0.388   0.385   0.391   0.387   0.395
    14.95    0.383   0.383   0.376   0.383   0.374   0.372   0.382   0.375   0.376   0.374   0.383   0.374   0.378   0.375   0.381   0.372   0.368   0.369   0.381   0.377   0.382   0.386   0.371   0.361   0.354   0.344   0.346   0.348   0.361   0.383   0.388   0.389   0.372   0.385   0.388
    10.30    0.370   0.383   0.381   0.378   0.379   0.385   0.385   0.376   0.378   0.386   0.380   0.379   0.371   0.366   0.367   0.382   0.387   0.371   0.378   0.364   0.378   0.373   0.369   0.368   0.349   0.347   0.356   0.356   0.360   0.371   0.378   0.371   0.365   0.380   0.382
     5.65    0.383   0.385   0.380   0.382   0.377   0.385   0.386   0.376   0.374   0.372   0.364   0.367   0.381   0.380   0.391   0.370   0.370   0.372   0.376   0.379   0.374   0.367   0.362   0.369   0.349   0.354   0.363   0.349   0.348   0.344   0.354   0.365   0.358   0.357   0.370
     1.00    0.382   0.396   0.395   0.384   0.374   0.379   0.388   0.382   0.364   0.360   0.367   0.376   0.380   0.369   0.389   0.388   0.371   0.378   0.384   0.385   0.375   0.358   0.369   0.364   0.356   0.347   0.345   0.333   0.351   0.357   0.351   0.363   0.358   0.375   0.376

   Mean standard deviation across all grid points:
      u component:    0.691 m/s
      v component:    0.577 m/s
      w component:    0.378 m/s


U-component (X) statistics from the interpolated hub point:

   Mean =   9.9913 m/s
   TI   =   7.4213 %


Processing complete.  6141.3 CPU seconds used.
