
This summary file was generated by TurbSim (from OpenFAST-v3.5.3) on 20-Apr-2025 at 03:11:06.


Runtime Options:

1682697194  Random seed #1
    RANLUX  Type of random number generator
         F  Output binary HH turbulence parameters?
         F  Output formatted turbulence parameters?
         F  Output AeroDyn HH files?
         T  Output AeroDyn FF files?
         F  Output BLADED FF files?
         F  Output tower data?
         F  Output HAWC FF files?
         F  Output formatted FF files?
         T  Output coherent turbulence time step file?
 0 -  NONE  IEC turbulence models scaled to exact specified standard deviation


Turbine/Model Specifications:

        37  Vertical grid-point matrix dimension
        35  Horizontal grid-point matrix dimension
     0.250  Time step [seconds]
   900.000  Analysis time [seconds]
   900.000  Usable output time [seconds]
    89.350  Hub height [m]
   167.400  Grid height [m]
   158.100  Grid width [m]
     0.000  Vertical flow angle [degrees]
     0.000  Horizontal flow angle [degrees]


Meteorological Boundary Conditions:

    TIMESR  User-input time series spectral model
       N/A  IEC standard
       N/A  IEC turbulence characteristic
       N/A  IEC turbulence type
       N/A  IEC Extreme Turbulence Model (ETM) "c" parameter [m/s]
       PL   Wind profile type
    90.000  Reference height [m]
    10.000  Reference wind speed [m/s]
       N/A  Jet height [m]
     0.120  Power law exponent
     0.030  Surface roughness length [m]


Non-IEC Meteorological Boundary Conditions:

    45.000  Site latitude [degrees]
     0.050  Gradient Richardson number
     0.480  Friction or shear velocity [m/s]
       N/A  Mixing layer depth [m]
       N/A  Mean hub u'w' Reynolds stress
       N/A  Mean hub u'v' Reynolds stress
       N/A  Mean hub v'w' Reynolds stress


Spatial Coherence Models:

       IEC  u-component coherence model
       IEC  v-component coherence model
       IEC  w-component coherence model
(   12.000, 0.353E-03)  u-component coherence parameters
(   12.000, 0.353E-03)  v-component coherence parameters
(   12.000, 0.353E-03)  w-component coherence parameters
       N/A  Coherence exponent


Coherent Turbulence Scaling Parameters:

.\EventData
            Name of the path containing the coherent turbulence data files
       les  Type of coherent turbulence data files
     0.500  Disturbance scale (ratio of wave height to rotor diameter)
     0.500  Fractional location of tower centerline from right
     0.000  Fractional location of hub height from the bottom of the dataset
    30.000  Minimum start time for coherent structures [seconds]


Profiles from User-Defined Time-Series Input:

  Height   Wind Speed   Horizontal Angle   Vertical Angle
   (m)        (m/s)          (deg)              (deg)    
  ------   ----------   ----------------   --------------
   94.00      10.00          -0.63               -0.00


You have requested that the following file(s) be generated:

   /kfs3/scratch/agupta/Projects/RL_Incubator/FinalRuns_Veer/Seed4/./FFSim_Seed4/Cond00_v10.0_PL0.12_TI3.0/Case0_wdirp00/Seed_5/TurbSim/HighT15.bts (AeroDyn/TurbSim full-field wind file)


Turbulence Simulation Scaling Parameter Summary:

   Turbulence model used                            =  User-input time series
   Gradient Richardson number                       =    0.050
   Monin-Obukhov (M-O) z/L parameter                =    0.067
   Monin-Obukhov (M-O) length scale                 = 1340.250 m
   Mean wind speed at hub height                    =    9.991 m/s

   Wind profile type                                =  Power law
   Power law exponent                               =    0.120
   Mean shear across rotor disk                     =    0.019 (m/s)/m
   Assumed rotor diameter                           =  158.100 m
   Surface roughness length                         =    0.030 m

   Nyquist frequency of turbulent wind field        =    2.000 Hz

   Number of time steps in the FFT                  =     3600
   Number of time steps output                      =     3600
   Number of points simulated                       =     1296


Mean Flow Angles:

   Vertical   =   0.0 degrees
   Horizontal =   0.0 degrees

Mean Wind Speed Profile:

   Height    Wind Speed   Horizontal Angle  Vertical Angle  U-comp (X)   V-comp (Y)   W-comp (Z)
     (m)        (m/s)         (degrees)       (degrees)       (m/s)        (m/s)        (m/s)   
   ------    ----------   ----------------  --------------  ----------   ----------   ----------
    168.4       10.78            0.00            0.00         10.78         0.00         0.00
    163.7       10.74            0.00            0.00         10.74         0.00         0.00
    159.1       10.71            0.00            0.00         10.71         0.00         0.00
    154.4       10.67            0.00            0.00         10.67         0.00         0.00
    149.8       10.63            0.00            0.00         10.63         0.00         0.00
    145.1       10.59            0.00            0.00         10.59         0.00         0.00
    140.5       10.55            0.00            0.00         10.55         0.00         0.00
    135.8       10.51            0.00            0.00         10.51         0.00         0.00
    131.2       10.46            0.00            0.00         10.46         0.00         0.00
    126.5       10.42            0.00            0.00         10.42         0.00         0.00
    121.9       10.37            0.00            0.00         10.37         0.00         0.00
    117.2       10.32            0.00            0.00         10.32         0.00         0.00
    112.6       10.27            0.00            0.00         10.27         0.00         0.00
    107.9       10.22            0.00            0.00         10.22         0.00         0.00
    103.3       10.17            0.00            0.00         10.17         0.00         0.00
     98.6       10.11            0.00            0.00         10.11         0.00         0.00
     94.0       10.05            0.00            0.00         10.05         0.00         0.00
     89.3        9.99            0.00            0.00          9.99         0.00         0.00
     84.7        9.93            0.00            0.00          9.93         0.00         0.00
     80.0        9.86            0.00            0.00          9.86         0.00         0.00
     75.4        9.79            0.00            0.00          9.79         0.00         0.00
     70.7        9.72            0.00            0.00          9.72         0.00         0.00
     66.1        9.64            0.00            0.00          9.64         0.00         0.00
     61.4        9.55            0.00            0.00          9.55         0.00         0.00
     56.8        9.46            0.00            0.00          9.46         0.00         0.00
     52.1        9.37            0.00            0.00          9.37         0.00         0.00
     47.5        9.26            0.00            0.00          9.26         0.00         0.00
     42.8        9.15            0.00            0.00          9.15         0.00         0.00
     38.2        9.02            0.00            0.00          9.02         0.00         0.00
     33.5        8.88            0.00            0.00          8.88         0.00         0.00
     28.9        8.73            0.00            0.00          8.73         0.00         0.00
     24.2        8.54            0.00            0.00          8.54         0.00         0.00
     19.6        8.33            0.00            0.00          8.33         0.00         0.00
     14.9        8.06            0.00            0.00          8.06         0.00         0.00
     10.3        7.71            0.00            0.00          7.71         0.00         0.00
      5.6        7.17            0.00            0.00          7.17         0.00         0.00
      1.0        5.83            0.00            0.00          5.83         0.00         0.00


Harvested Random Seeds after Generation of the Random Numbers:

     65026800 K 1
            0 K 2


Hub-Height Simulated Turbulence Statistical Summary:

   Type of Wind        Min (m/s)   Mean (m/s)    Max (m/s)  Sigma (m/s)       TI (%)
   ----------------    ---------   ----------    ---------  -----------       ------
   Longitudinal (u)         9.10         9.99        10.85        0.305        3.050
   Lateral (v)             -0.74         0.00         0.93        0.245        2.453
   Vertical (w)            -0.50        -0.00         0.51        0.141        1.410
   U component              9.10         9.99        10.85        0.305        3.050
   V component             -0.74         0.00         0.93        0.245        2.453
   W component             -0.50        -0.00         0.51        0.141        1.410
   Horizontal (U&V)         9.12         9.99        10.85        0.305        3.047
   Total                    9.12        10.00        10.85        0.305        3.047

                       Min Reynolds     Mean Reynolds    Max Reynolds    Correlation
   Product             Stress (m/s)^2   Stress (m/s)^2   Stress (m/s)^2  Coefficient
   ----------------    --------------   --------------   --------------  -----------
   u'w'                     -0.212             0.001             0.335         0.015
   u'v'                     -0.549            -0.010             0.388        -0.128
   v'w'                     -0.188             0.001             0.198         0.015


   Friction Velocity (Ustar)  =      0.026 m/s
   Maximum Instantaneous TKE  =      0.590 (m/s)^2
   Maximum Instantaneous CTKE =      0.299 (m/s)^2


Grid Point Variance Summary:

   Y-coord  -79.05  -74.40  -69.75  -65.10  -60.45  -55.80  -51.15  -46.50  -41.85  -37.20  -32.55  -27.90  -23.25  -18.60  -13.95   -9.30   -4.65    0.00    4.65    9.30   13.95   18.60   23.25   27.90   32.55   37.20   41.85   46.50   51.15   55.80   60.45   65.10   69.75   74.40   79.05

   Height   Standard deviation at grid points for the u component:
   168.40    0.329   0.300   0.310   0.304   0.323   0.321   0.320   0.325   0.300   0.302   0.296   0.309   0.309   0.309   0.336   0.332   0.318   0.334   0.331   0.355   0.330   0.323   0.338   0.338   0.328   0.331   0.329   0.314   0.290   0.286   0.278   0.263   0.279   0.289   0.299
   163.75    0.321   0.312   0.302   0.294   0.292   0.308   0.298   0.300   0.304   0.298   0.310   0.321   0.318   0.336   0.349   0.335   0.341   0.331   0.330   0.355   0.329   0.344   0.325   0.341   0.358   0.315   0.287   0.289   0.292   0.291   0.262   0.255   0.262   0.279   0.278
   159.10    0.318   0.301   0.307   0.309   0.304   0.295   0.309   0.306   0.296   0.321   0.329   0.352   0.354   0.382   0.365   0.339   0.334   0.330   0.354   0.351   0.321   0.318   0.351   0.353   0.364   0.313   0.290   0.279   0.294   0.299   0.280   0.250   0.268   0.263   0.265
   154.45    0.319   0.321   0.295   0.314   0.298   0.274   0.282   0.297   0.310   0.323   0.346   0.330   0.334   0.350   0.343   0.323   0.339   0.337   0.356   0.344   0.323   0.319   0.335   0.346   0.351   0.297   0.296   0.285   0.276   0.276   0.287   0.272   0.285   0.277   0.272
   149.80    0.318   0.323   0.320   0.320   0.327   0.312   0.323   0.319   0.327   0.320   0.352   0.361   0.335   0.342   0.322   0.335   0.329   0.338   0.331   0.336   0.308   0.316   0.334   0.318   0.319   0.318   0.304   0.317   0.308   0.295   0.309   0.289   0.317   0.300   0.276
   145.15    0.340   0.326   0.301   0.331   0.335   0.309   0.327   0.351   0.358   0.341   0.360   0.361   0.372   0.338   0.333   0.346   0.374   0.331   0.333   0.318   0.330   0.318   0.303   0.319   0.304   0.322   0.333   0.305   0.306   0.311   0.303   0.297   0.300   0.295   0.303
   140.50    0.367   0.352   0.346   0.318   0.335   0.325   0.305   0.316   0.337   0.359   0.350   0.355   0.345   0.341   0.333   0.335   0.355   0.351   0.337   0.320   0.309   0.317   0.323   0.323   0.307   0.331   0.328   0.333   0.315   0.305   0.301   0.301   0.306   0.312   0.315
   135.85    0.345   0.362   0.367   0.352   0.370   0.327   0.310   0.310   0.348   0.330   0.337   0.367   0.348   0.346   0.323   0.348   0.341   0.343   0.323   0.316   0.307   0.305   0.299   0.316   0.324   0.342   0.340   0.338   0.333   0.342   0.332   0.320   0.309   0.310   0.345
   131.20    0.350   0.334   0.358   0.396   0.360   0.324   0.333   0.347   0.356   0.355   0.352   0.352   0.342   0.330   0.326   0.329   0.371   0.376   0.335   0.317   0.313   0.308   0.331   0.331   0.340   0.335   0.330   0.339   0.343   0.343   0.336   0.325   0.337   0.323   0.360
   126.55    0.329   0.327   0.342   0.372   0.347   0.359   0.337   0.333   0.318   0.353   0.354   0.364   0.342   0.357   0.341   0.366   0.354   0.368   0.346   0.344   0.322   0.318   0.340   0.341   0.330   0.337   0.325   0.360   0.361   0.354   0.367   0.359   0.350   0.346   0.352
   121.90    0.336   0.359   0.335   0.349   0.376   0.374   0.355   0.336   0.339   0.328   0.322   0.343   0.322   0.318   0.353   0.343   0.361   0.340   0.334   0.375   0.347   0.318   0.320   0.318   0.311   0.337   0.326   0.346   0.344   0.357   0.372   0.333   0.356   0.367   0.363
   117.25    0.353   0.369   0.320   0.321   0.357   0.361   0.345   0.326   0.318   0.327   0.308   0.324   0.316   0.321   0.336   0.328   0.336   0.363   0.366   0.359   0.358   0.311   0.309   0.300   0.303   0.302   0.319   0.336   0.335   0.329   0.344   0.347   0.368   0.378   0.383
   112.60    0.382   0.356   0.350   0.313   0.348   0.349   0.341   0.333   0.319   0.345   0.351   0.346   0.349   0.318   0.334   0.353   0.353   0.337   0.352   0.340   0.352   0.342   0.317   0.305   0.304   0.296   0.301   0.319   0.334   0.337   0.348   0.352   0.374   0.394   0.373
   107.95    0.372   0.367   0.342   0.332   0.319   0.334   0.345   0.334   0.346   0.357   0.349   0.375   0.347   0.351   0.345   0.304   0.327   0.342   0.322   0.338   0.324   0.335   0.318   0.311   0.317   0.310   0.309   0.321   0.319   0.327   0.336   0.339   0.344   0.373   0.361
   103.30    0.347   0.340   0.337   0.323   0.339   0.324   0.311   0.332   0.330   0.345   0.359   0.358   0.373   0.368   0.346   0.328   0.342   0.330   0.304   0.307   0.311   0.322   0.338   0.337   0.333   0.344   0.305   0.305   0.310   0.300   0.323   0.326   0.325   0.355   0.338
    98.65    0.335   0.343   0.314   0.297   0.311   0.335   0.318   0.340   0.320   0.357   0.372   0.390   0.371   0.371   0.345   0.344   0.347   0.303   0.300   0.302   0.304   0.313   0.302   0.317   0.321   0.311   0.317   0.310   0.316   0.305   0.308   0.323   0.323   0.340   0.341
    94.00    0.348   0.367   0.339   0.324   0.330   0.353   0.341   0.333   0.315   0.348   0.379   0.388   0.402   0.384   0.362   0.354   0.339   0.330   0.304   0.300   0.306   0.308   0.305   0.305   0.308   0.316   0.324   0.326   0.335   0.309   0.304   0.303   0.311   0.306   0.307
    89.35    0.341   0.362   0.360   0.336   0.339   0.365   0.379   0.340   0.349   0.368   0.367   0.355   0.382   0.395   0.362   0.377   0.344   0.305   0.305   0.322   0.329   0.303   0.313   0.297   0.313   0.319   0.322   0.327   0.335   0.291   0.282   0.262   0.291   0.305   0.330
    84.70    0.364   0.364   0.346   0.359   0.369   0.369   0.375   0.355   0.353   0.355   0.368   0.378   0.414   0.410   0.404   0.401   0.352   0.311   0.323   0.339   0.335   0.328   0.335   0.319   0.317   0.325   0.335   0.332   0.316   0.304   0.261   0.275   0.288   0.298   0.304
    80.05    0.365   0.362   0.351   0.373   0.400   0.383   0.381   0.379   0.356   0.343   0.359   0.405   0.416   0.435   0.404   0.400   0.376   0.323   0.316   0.323   0.331   0.337   0.339   0.334   0.337   0.343   0.333   0.315   0.329   0.296   0.281   0.291   0.292   0.279   0.294
    75.40    0.355   0.334   0.349   0.375   0.380   0.412   0.378   0.370   0.389   0.377   0.398   0.407   0.409   0.428   0.430   0.378   0.347   0.347   0.319   0.326   0.311   0.342   0.340   0.350   0.345   0.336   0.309   0.320   0.316   0.315   0.293   0.284   0.285   0.287   0.291
    70.75    0.336   0.355   0.332   0.386   0.406   0.393   0.400   0.399   0.405   0.393   0.417   0.433   0.448   0.425   0.419   0.396   0.356   0.349   0.311   0.311   0.320   0.336   0.356   0.368   0.349   0.328   0.312   0.322   0.327   0.312   0.292   0.277   0.294   0.293   0.297
    66.10    0.315   0.344   0.338   0.370   0.390   0.402   0.400   0.380   0.391   0.398   0.410   0.431   0.442   0.415   0.397   0.372   0.379   0.368   0.344   0.320   0.328   0.333   0.357   0.366   0.371   0.360   0.333   0.367   0.371   0.327   0.295   0.286   0.286   0.292   0.282
    61.45    0.343   0.377   0.379   0.399   0.360   0.391   0.393   0.367   0.384   0.409   0.393   0.423   0.418   0.399   0.408   0.387   0.363   0.381   0.370   0.355   0.338   0.328   0.354   0.328   0.361   0.353   0.350   0.381   0.389   0.337   0.331   0.303   0.292   0.298   0.314
    56.80    0.369   0.379   0.362   0.373   0.372   0.384   0.376   0.387   0.394   0.390   0.408   0.413   0.403   0.394   0.381   0.361   0.366   0.374   0.382   0.374   0.335   0.358   0.359   0.351   0.342   0.374   0.390   0.397   0.384   0.352   0.334   0.319   0.307   0.308   0.308
    52.15    0.354   0.355   0.342   0.367   0.387   0.378   0.384   0.383   0.380   0.390   0.384   0.391   0.361   0.375   0.365   0.378   0.381   0.359   0.357   0.350   0.330   0.339   0.347   0.365   0.371   0.379   0.381   0.351   0.355   0.370   0.349   0.346   0.337   0.323   0.319
    47.50    0.362   0.377   0.364   0.368   0.379   0.388   0.369   0.375   0.370   0.362   0.361   0.385   0.385   0.363   0.360   0.366   0.355   0.343   0.338   0.333   0.341   0.344   0.339   0.371   0.348   0.365   0.377   0.338   0.341   0.344   0.338   0.344   0.357   0.334   0.318
    42.85    0.361   0.378   0.360   0.366   0.375   0.383   0.381   0.364   0.355   0.339   0.358   0.363   0.368   0.361   0.372   0.368   0.347   0.330   0.331   0.332   0.359   0.354   0.336   0.351   0.368   0.364   0.365   0.370   0.334   0.312   0.307   0.347   0.352   0.353   0.337
    38.20    0.338   0.360   0.363   0.369   0.372   0.364   0.358   0.367   0.345   0.336   0.336   0.358   0.365   0.367   0.375   0.358   0.367   0.353   0.368   0.358   0.343   0.361   0.351   0.345   0.345   0.357   0.366   0.357   0.353   0.328   0.336   0.358   0.370   0.368   0.353
    33.55    0.338   0.328   0.351   0.355   0.376   0.355   0.344   0.357   0.363   0.334   0.301   0.334   0.358   0.388   0.368   0.385   0.361   0.335   0.340   0.364   0.367   0.401   0.364   0.333   0.340   0.348   0.355   0.344   0.349   0.340   0.339   0.339   0.339   0.358   0.335
    28.90    0.328   0.345   0.331   0.342   0.346   0.332   0.333   0.348   0.359   0.333   0.314   0.309   0.327   0.352   0.362   0.364   0.351   0.334   0.358   0.365   0.365   0.389   0.370   0.340   0.328   0.359   0.368   0.368   0.367   0.375   0.345   0.326   0.321   0.330   0.333
    24.25    0.323   0.340   0.351   0.351   0.361   0.340   0.318   0.337   0.328   0.303   0.316   0.305   0.317   0.338   0.366   0.355   0.340   0.354   0.370   0.352   0.341   0.367   0.361   0.332   0.324   0.338   0.347   0.350   0.349   0.354   0.329   0.329   0.316   0.331   0.318
    19.60    0.310   0.313   0.337   0.331   0.335   0.300   0.295   0.321   0.317   0.334   0.316   0.307   0.326   0.338   0.330   0.357   0.349   0.345   0.345   0.348   0.324   0.350   0.336   0.328   0.346   0.335   0.347   0.371   0.338   0.335   0.334   0.333   0.329   0.336   0.315
    14.95    0.297   0.284   0.320   0.328   0.317   0.302   0.319   0.292   0.305   0.332   0.348   0.334   0.322   0.334   0.314   0.330   0.330   0.334   0.335   0.337   0.339   0.319   0.343   0.372   0.348   0.338   0.351   0.349   0.357   0.374   0.343   0.349   0.327   0.330   0.304
    10.30    0.290   0.310   0.323   0.337   0.308   0.309   0.304   0.306   0.308   0.338   0.357   0.333   0.336   0.339   0.367   0.338   0.323   0.337   0.337   0.339   0.335   0.347   0.359   0.354   0.359   0.357   0.331   0.355   0.357   0.363   0.355   0.329   0.336   0.313   0.298
     5.65    0.314   0.314   0.322   0.331   0.304   0.325   0.312   0.335   0.317   0.328   0.342   0.347   0.346   0.370   0.388   0.360   0.343   0.336   0.323   0.328   0.339   0.372   0.347   0.331   0.331   0.340   0.344   0.342   0.330   0.323   0.319   0.324   0.321   0.307   0.288
     1.00    0.317   0.316   0.332   0.331   0.299   0.316   0.324   0.325   0.328   0.316   0.335   0.344   0.368   0.362   0.373   0.366   0.358   0.320   0.320   0.332   0.331   0.361   0.351   0.356   0.331   0.322   0.343   0.320   0.292   0.274   0.304   0.283   0.275   0.257   0.277

   Height   Standard deviation at grid points for the v component:
   168.40    0.246   0.250   0.254   0.234   0.238   0.238   0.233   0.227   0.213   0.224   0.231   0.229   0.226   0.222   0.228   0.222   0.231   0.222   0.228   0.221   0.210   0.229   0.215   0.222   0.225   0.215   0.211   0.204   0.224   0.223   0.227   0.225   0.219   0.215   0.218
   163.75    0.254   0.244   0.244   0.240   0.231   0.233   0.226   0.232   0.226   0.230   0.233   0.222   0.226   0.223   0.230   0.236   0.236   0.237   0.232   0.230   0.233   0.235   0.221   0.228   0.226   0.226   0.215   0.212   0.231   0.228   0.231   0.219   0.224   0.214   0.223
   159.10    0.246   0.240   0.231   0.227   0.228   0.231   0.234   0.230   0.222   0.221   0.230   0.221   0.228   0.231   0.237   0.240   0.236   0.233   0.230   0.225   0.232   0.220   0.221   0.226   0.231   0.235   0.235   0.230   0.239   0.223   0.223   0.221   0.217   0.221   0.232
   154.45    0.232   0.230   0.223   0.224   0.218   0.227   0.242   0.230   0.230   0.227   0.220   0.226   0.231   0.236   0.235   0.231   0.228   0.230   0.230   0.234   0.229   0.225   0.232   0.224   0.224   0.240   0.241   0.247   0.247   0.235   0.230   0.215   0.214   0.230   0.224
   149.80    0.230   0.226   0.213   0.230   0.219   0.219   0.220   0.230   0.235   0.221   0.223   0.236   0.237   0.231   0.227   0.227   0.242   0.231   0.227   0.230   0.225   0.222   0.220   0.236   0.231   0.228   0.256   0.252   0.237   0.236   0.224   0.216   0.217   0.223   0.231
   145.15    0.222   0.223   0.221   0.220   0.219   0.220   0.215   0.226   0.227   0.221   0.219   0.235   0.236   0.236   0.235   0.238   0.248   0.242   0.233   0.234   0.225   0.223   0.225   0.225   0.244   0.256   0.251   0.251   0.229   0.233   0.225   0.228   0.232   0.230   0.234
   140.50    0.225   0.213   0.223   0.221   0.220   0.215   0.225   0.221   0.222   0.224   0.226   0.225   0.236   0.241   0.244   0.250   0.237   0.237   0.239   0.236   0.228   0.222   0.233   0.227   0.234   0.238   0.243   0.233   0.238   0.243   0.238   0.235   0.238   0.233   0.240
   135.85    0.228   0.225   0.229   0.225   0.225   0.222   0.217   0.220   0.223   0.219   0.222   0.227   0.226   0.235   0.248   0.241   0.244   0.241   0.240   0.235   0.233   0.230   0.226   0.227   0.232   0.241   0.240   0.224   0.237   0.235   0.246   0.233   0.216   0.220   0.237
   131.20    0.212   0.224   0.219   0.221   0.224   0.213   0.217   0.214   0.221   0.219   0.216   0.224   0.224   0.232   0.234   0.238   0.236   0.238   0.232   0.228   0.226   0.225   0.231   0.224   0.214   0.234   0.237   0.235   0.245   0.236   0.233   0.226   0.224   0.222   0.230
   126.55    0.216   0.222   0.214   0.216   0.218   0.215   0.217   0.217   0.206   0.206   0.217   0.222   0.227   0.233   0.232   0.240   0.223   0.237   0.233   0.235   0.228   0.235   0.240   0.226   0.222   0.222   0.235   0.235   0.236   0.230   0.227   0.208   0.209   0.213   0.223
   121.90    0.212   0.218   0.216   0.219   0.217   0.221   0.214   0.213   0.208   0.210   0.219   0.219   0.219   0.234   0.235   0.234   0.237   0.237   0.240   0.232   0.211   0.220   0.234   0.231   0.232   0.223   0.225   0.238   0.235   0.232   0.214   0.203   0.198   0.206   0.210
   117.25    0.212   0.209   0.218   0.215   0.213   0.208   0.218   0.212   0.205   0.212   0.215   0.211   0.219   0.236   0.233   0.239   0.243   0.242   0.223   0.221   0.224   0.238   0.243   0.232   0.247   0.234   0.230   0.234   0.225   0.227   0.210   0.211   0.199   0.202   0.201
   112.60    0.216   0.220   0.215   0.205   0.212   0.215   0.215   0.218   0.223   0.219   0.219   0.229   0.224   0.230   0.240   0.237   0.235   0.236   0.213   0.223   0.228   0.233   0.244   0.250   0.231   0.240   0.233   0.234   0.228   0.217   0.217   0.212   0.191   0.194   0.209
   107.95    0.222   0.226   0.221   0.210   0.213   0.215   0.216   0.224   0.215   0.209   0.211   0.219   0.230   0.227   0.233   0.233   0.232   0.228   0.231   0.232   0.228   0.234   0.237   0.243   0.247   0.240   0.232   0.234   0.234   0.227   0.227   0.211   0.199   0.200   0.216
   103.30    0.212   0.217   0.210   0.204   0.205   0.210   0.226   0.219   0.218   0.216   0.223   0.219   0.228   0.238   0.232   0.245   0.244   0.239   0.243   0.241   0.235   0.248   0.246   0.234   0.243   0.226   0.232   0.230   0.230   0.229   0.227   0.217   0.208   0.205   0.215
    98.65    0.200   0.201   0.212   0.199   0.204   0.211   0.223   0.217   0.214   0.221   0.229   0.225   0.239   0.232   0.242   0.256   0.243   0.243   0.232   0.252   0.244   0.240   0.242   0.223   0.232   0.227   0.231   0.233   0.238   0.235   0.227   0.225   0.217   0.212   0.203
    94.00    0.202   0.211   0.212   0.218   0.211   0.220   0.220   0.226   0.219   0.224   0.221   0.235   0.246   0.230   0.233   0.250   0.248   0.239   0.250   0.250   0.241   0.240   0.237   0.230   0.232   0.232   0.236   0.236   0.238   0.224   0.224   0.219   0.209   0.214   0.207
    89.35    0.216   0.212   0.217   0.210   0.217   0.212   0.220   0.216   0.212   0.226   0.223   0.240   0.240   0.243   0.232   0.246   0.240   0.245   0.247   0.256   0.255   0.245   0.241   0.236   0.236   0.233   0.230   0.230   0.230   0.234   0.228   0.219   0.217   0.216   0.212
    84.70    0.210   0.213   0.213   0.214   0.212   0.214   0.216   0.220   0.214   0.226   0.227   0.243   0.247   0.248   0.243   0.252   0.245   0.247   0.243   0.245   0.251   0.250   0.243   0.237   0.233   0.230   0.227   0.236   0.234   0.236   0.232   0.226   0.216   0.215   0.211
    80.05    0.200   0.213   0.209   0.206   0.202   0.209   0.215   0.220   0.222   0.221   0.232   0.241   0.243   0.244   0.247   0.257   0.251   0.261   0.243   0.245   0.246   0.237   0.240   0.246   0.242   0.235   0.225   0.237   0.240   0.235   0.231   0.228   0.223   0.202   0.208
    75.40    0.213   0.219   0.208   0.209   0.205   0.213   0.213   0.217   0.221   0.228   0.237   0.247   0.246   0.238   0.248   0.260   0.265   0.258   0.243   0.248   0.240   0.241   0.242   0.234   0.238   0.222   0.237   0.239   0.240   0.242   0.230   0.208   0.205   0.203   0.211
    70.75    0.215   0.219   0.222   0.222   0.219   0.218   0.226   0.226   0.218   0.243   0.248   0.248   0.249   0.253   0.252   0.256   0.266   0.254   0.244   0.231   0.234   0.242   0.240   0.239   0.238   0.235   0.232   0.235   0.234   0.221   0.221   0.211   0.200   0.212   0.214
    66.10    0.209   0.214   0.227   0.229   0.229   0.228   0.230   0.221   0.230   0.236   0.242   0.254   0.258   0.267   0.268   0.269   0.273   0.259   0.246   0.241   0.240   0.235   0.245   0.244   0.243   0.244   0.245   0.242   0.239   0.226   0.222   0.215   0.210   0.211   0.217
    61.45    0.218   0.207   0.222   0.231   0.234   0.237   0.238   0.241   0.238   0.240   0.245   0.249   0.260   0.267   0.273   0.279   0.278   0.263   0.259   0.246   0.239   0.249   0.254   0.255   0.238   0.241   0.242   0.232   0.234   0.232   0.226   0.210   0.219   0.215   0.219
    56.80    0.211   0.216   0.222   0.234   0.232   0.230   0.245   0.250   0.250   0.254   0.250   0.259   0.259   0.271   0.274   0.280   0.266   0.262   0.263   0.247   0.236   0.235   0.239   0.238   0.233   0.232   0.229   0.232   0.234   0.233   0.230   0.221   0.225   0.216   0.222
    52.15    0.218   0.227   0.232   0.242   0.239   0.242   0.248   0.252   0.268   0.273   0.269   0.270   0.271   0.276   0.266   0.270   0.266   0.266   0.250   0.248   0.245   0.241   0.226   0.218   0.222   0.232   0.228   0.220   0.221   0.220   0.238   0.230   0.228   0.228   0.230
    47.50    0.235   0.235   0.233   0.236   0.241   0.256   0.261   0.257   0.261   0.271   0.269   0.274   0.271   0.267   0.261   0.246   0.260   0.263   0.256   0.244   0.252   0.241   0.239   0.227   0.227   0.228   0.229   0.210   0.219   0.217   0.233   0.245   0.240   0.250   0.244
    42.85    0.236   0.246   0.236   0.235   0.243   0.244   0.250   0.247   0.250   0.263   0.259   0.269   0.270   0.253   0.259   0.261   0.254   0.257   0.251   0.247   0.248   0.244   0.246   0.229   0.228   0.222   0.217   0.225   0.223   0.218   0.223   0.224   0.243   0.241   0.250
    38.20    0.245   0.239   0.244   0.242   0.245   0.246   0.237   0.239   0.252   0.264   0.261   0.276   0.258   0.262   0.271   0.277   0.265   0.263   0.258   0.260   0.259   0.257   0.240   0.239   0.226   0.228   0.240   0.241   0.241   0.228   0.231   0.234   0.236   0.232   0.243
    33.55    0.228   0.237   0.237   0.234   0.237   0.230   0.236   0.239   0.254   0.266   0.279   0.263   0.264   0.279   0.277   0.276   0.267   0.267   0.268   0.264   0.253   0.255   0.251   0.235   0.241   0.237   0.232   0.244   0.237   0.237   0.230   0.230   0.231   0.240   0.238
    28.90    0.230   0.233   0.229   0.238   0.242   0.229   0.226   0.253   0.241   0.269   0.275   0.265   0.269   0.271   0.270   0.268   0.269   0.265   0.264   0.257   0.252   0.247   0.236   0.225   0.240   0.241   0.242   0.245   0.248   0.238   0.232   0.232   0.235   0.232   0.228
    24.25    0.235   0.239   0.232   0.238   0.239   0.237   0.240   0.235   0.249   0.264   0.259   0.255   0.258   0.268   0.268   0.272   0.267   0.255   0.258   0.250   0.245   0.245   0.233   0.235   0.237   0.242   0.239   0.231   0.236   0.249   0.249   0.238   0.233   0.235   0.230
    19.60    0.246   0.251   0.239   0.236   0.243   0.244   0.236   0.241   0.237   0.256   0.254   0.250   0.250   0.255   0.263   0.269   0.250   0.253   0.251   0.248   0.236   0.225   0.234   0.236   0.246   0.239   0.239   0.229   0.236   0.249   0.241   0.240   0.234   0.225   0.230
    14.95    0.240   0.243   0.245   0.248   0.243   0.248   0.246   0.240   0.240   0.249   0.257   0.247   0.240   0.243   0.261   0.256   0.257   0.245   0.247   0.235   0.232   0.230   0.232   0.239   0.240   0.246   0.248   0.234   0.237   0.236   0.233   0.228   0.229   0.224   0.221
    10.30    0.247   0.244   0.239   0.253   0.260   0.250   0.246   0.244   0.239   0.237   0.242   0.237   0.238   0.241   0.252   0.253   0.251   0.254   0.247   0.236   0.231   0.233   0.231   0.220   0.228   0.245   0.253   0.226   0.236   0.229   0.232   0.230   0.228   0.216   0.217
     5.65    0.243   0.246   0.254   0.264   0.266   0.241   0.244   0.243   0.253   0.248   0.244   0.227   0.228   0.238   0.250   0.247   0.248   0.252   0.244   0.236   0.224   0.229   0.235   0.233   0.238   0.246   0.249   0.252   0.238   0.227   0.243   0.235   0.227   0.228   0.226
     1.00    0.249   0.251   0.261   0.261   0.262   0.246   0.247   0.249   0.252   0.257   0.252   0.237   0.230   0.245   0.241   0.239   0.246   0.253   0.240   0.226   0.229   0.228   0.239   0.243   0.244   0.249   0.241   0.243   0.239   0.241   0.241   0.224   0.219   0.215   0.210

   Height   Standard deviation at grid points for the w component:
   168.40    0.149   0.147   0.143   0.138   0.143   0.139   0.143   0.143   0.143   0.142   0.142   0.139   0.141   0.138   0.144   0.145   0.148   0.151   0.146   0.143   0.145   0.139   0.137   0.131   0.130   0.132   0.131   0.134   0.137   0.141   0.135   0.132   0.133   0.129   0.133
   163.75    0.144   0.145   0.140   0.140   0.142   0.140   0.144   0.146   0.147   0.144   0.143   0.143   0.146   0.148   0.141   0.147   0.147   0.142   0.143   0.139   0.140   0.136   0.136   0.133   0.135   0.136   0.137   0.134   0.137   0.137   0.130   0.127   0.133   0.133   0.134
   159.10    0.141   0.141   0.143   0.140   0.144   0.148   0.146   0.144   0.149   0.147   0.144   0.145   0.145   0.139   0.143   0.142   0.146   0.145   0.140   0.140   0.136   0.133   0.133   0.134   0.136   0.132   0.130   0.133   0.137   0.136   0.129   0.133   0.133   0.135   0.136
   154.45    0.144   0.143   0.142   0.141   0.139   0.142   0.144   0.143   0.142   0.144   0.141   0.143   0.142   0.136   0.137   0.139   0.141   0.133   0.136   0.137   0.133   0.131   0.132   0.134   0.134   0.135   0.139   0.138   0.135   0.134   0.133   0.132   0.133   0.135   0.132
   149.80    0.145   0.145   0.144   0.141   0.145   0.150   0.142   0.138   0.132   0.136   0.138   0.143   0.140   0.142   0.133   0.139   0.141   0.138   0.136   0.137   0.131   0.139   0.133   0.132   0.137   0.136   0.137   0.131   0.137   0.134   0.127   0.133   0.129   0.135   0.132
   145.15    0.143   0.146   0.144   0.141   0.145   0.145   0.150   0.149   0.139   0.141   0.141   0.140   0.145   0.141   0.137   0.140   0.139   0.135   0.130   0.140   0.139   0.146   0.145   0.139   0.137   0.137   0.133   0.137   0.132   0.135   0.133   0.132   0.130   0.131   0.130
   140.50    0.155   0.151   0.152   0.143   0.144   0.151   0.149   0.143   0.147   0.152   0.145   0.145   0.140   0.144   0.142   0.141   0.137   0.137   0.137   0.140   0.143   0.141   0.142   0.141   0.140   0.135   0.134   0.136   0.134   0.131   0.133   0.134   0.130   0.133   0.137
   135.85    0.148   0.145   0.150   0.146   0.145   0.148   0.154   0.148   0.151   0.152   0.158   0.157   0.151   0.145   0.137   0.136   0.134   0.139   0.138   0.142   0.146   0.145   0.140   0.136   0.134   0.129   0.130   0.133   0.135   0.133   0.133   0.135   0.138   0.131   0.141
   131.20    0.145   0.146   0.149   0.149   0.147   0.150   0.158   0.154   0.158   0.154   0.159   0.155   0.155   0.146   0.138   0.141   0.143   0.137   0.137   0.144   0.149   0.147   0.140   0.137   0.130   0.127   0.128   0.130   0.134   0.131   0.136   0.139   0.140   0.134   0.139
   126.55    0.143   0.143   0.142   0.141   0.149   0.147   0.151   0.162   0.157   0.158   0.166   0.164   0.160   0.153   0.143   0.139   0.142   0.143   0.144   0.141   0.145   0.147   0.141   0.138   0.133   0.129   0.129   0.131   0.127   0.136   0.135   0.139   0.134   0.134   0.137
   121.90    0.142   0.136   0.139   0.140   0.136   0.142   0.150   0.160   0.158   0.160   0.163   0.162   0.157   0.153   0.154   0.152   0.153   0.147   0.145   0.144   0.140   0.143   0.137   0.133   0.133   0.129   0.131   0.133   0.132   0.135   0.137   0.136   0.137   0.132   0.142
   117.25    0.137   0.144   0.141   0.141   0.138   0.144   0.154   0.157   0.162   0.160   0.160   0.156   0.152   0.152   0.146   0.156   0.152   0.155   0.144   0.146   0.139   0.144   0.141   0.140   0.137   0.133   0.136   0.134   0.131   0.134   0.136   0.134   0.137   0.142   0.145
   112.60    0.144   0.142   0.142   0.141   0.142   0.145   0.155   0.158   0.158   0.161   0.156   0.151   0.148   0.147   0.154   0.155   0.152   0.149   0.146   0.145   0.146   0.142   0.144   0.142   0.139   0.137   0.132   0.133   0.136   0.134   0.139   0.138   0.140   0.141   0.145
   107.95    0.147   0.152   0.141   0.150   0.144   0.146   0.150   0.151   0.156   0.152   0.150   0.150   0.148   0.151   0.144   0.145   0.152   0.148   0.146   0.147   0.139   0.139   0.138   0.140   0.141   0.138   0.137   0.139   0.144   0.136   0.142   0.139   0.140   0.148   0.150
   103.30    0.147   0.153   0.149   0.149   0.150   0.150   0.147   0.149   0.149   0.154   0.149   0.141   0.145   0.143   0.141   0.147   0.145   0.145   0.141   0.144   0.137   0.140   0.138   0.138   0.140   0.138   0.142   0.140   0.143   0.143   0.144   0.143   0.145   0.153   0.152
    98.65    0.150   0.152   0.153   0.147   0.146   0.141   0.151   0.150   0.151   0.148   0.141   0.139   0.142   0.139   0.141   0.145   0.145   0.149   0.145   0.141   0.142   0.138   0.141   0.144   0.133   0.141   0.143   0.144   0.138   0.137   0.139   0.135   0.142   0.150   0.149
    94.00    0.156   0.163   0.157   0.152   0.145   0.145   0.145   0.146   0.149   0.145   0.135   0.135   0.137   0.142   0.143   0.143   0.149   0.150   0.136   0.138   0.136   0.137   0.137   0.135   0.142   0.146   0.141   0.141   0.140   0.137   0.138   0.144   0.145   0.146   0.151
    89.35    0.151   0.150   0.148   0.142   0.144   0.135   0.137   0.139   0.141   0.137   0.135   0.132   0.136   0.138   0.140   0.141   0.147   0.141   0.138   0.136   0.134   0.141   0.140   0.139   0.145   0.140   0.137   0.142   0.139   0.137   0.145   0.145   0.145   0.145   0.147
    84.70    0.146   0.146   0.144   0.133   0.137   0.138   0.139   0.138   0.133   0.135   0.131   0.133   0.138   0.137   0.135   0.132   0.140   0.146   0.134   0.135   0.135   0.140   0.136   0.141   0.143   0.145   0.140   0.142   0.140   0.145   0.148   0.150   0.145   0.141   0.146
    80.05    0.144   0.144   0.136   0.133   0.134   0.131   0.139   0.144   0.131   0.129   0.128   0.132   0.136   0.136   0.131   0.138   0.137   0.139   0.135   0.134   0.134   0.135   0.131   0.130   0.135   0.131   0.133   0.138   0.147   0.145   0.142   0.151   0.153   0.148   0.149
    75.40    0.146   0.137   0.132   0.129   0.134   0.139   0.135   0.138   0.130   0.128   0.131   0.134   0.132   0.132   0.135   0.135   0.132   0.134   0.139   0.142   0.135   0.130   0.130   0.134   0.134   0.128   0.132   0.137   0.140   0.148   0.146   0.142   0.144   0.145   0.149
    70.75    0.142   0.138   0.137   0.135   0.133   0.135   0.134   0.136   0.131   0.136   0.139   0.136   0.134   0.135   0.134   0.131   0.133   0.135   0.135   0.133   0.135   0.130   0.135   0.134   0.132   0.124   0.132   0.135   0.144   0.146   0.145   0.140   0.139   0.145   0.143
    66.10    0.138   0.135   0.132   0.133   0.140   0.136   0.133   0.128   0.132   0.132   0.137   0.137   0.140   0.137   0.137   0.126   0.128   0.131   0.130   0.131   0.133   0.134   0.130   0.135   0.130   0.131   0.135   0.140   0.144   0.143   0.142   0.141   0.141   0.143   0.145
    61.45    0.131   0.137   0.132   0.139   0.140   0.133   0.130   0.129   0.127   0.130   0.130   0.131   0.134   0.137   0.133   0.127   0.129   0.133   0.134   0.132   0.132   0.129   0.131   0.135   0.132   0.131   0.135   0.141   0.146   0.139   0.138   0.137   0.136   0.141   0.140
    56.80    0.127   0.131   0.133   0.138   0.139   0.133   0.133   0.131   0.127   0.128   0.128   0.132   0.133   0.139   0.129   0.128   0.128   0.131   0.137   0.130   0.130   0.135   0.135   0.136   0.134   0.129   0.136   0.145   0.146   0.139   0.136   0.134   0.135   0.147   0.143
    52.15    0.125   0.127   0.134   0.135   0.137   0.131   0.127   0.126   0.130   0.131   0.127   0.129   0.130   0.131   0.133   0.131   0.128   0.134   0.137   0.135   0.137   0.141   0.140   0.131   0.133   0.124   0.132   0.141   0.146   0.142   0.138   0.134   0.141   0.140   0.145
    47.50    0.128   0.133   0.133   0.136   0.134   0.128   0.127   0.131   0.132   0.133   0.129   0.133   0.136   0.134   0.140   0.129   0.135   0.135   0.143   0.146   0.141   0.140   0.139   0.135   0.135   0.130   0.131   0.139   0.141   0.135   0.135   0.134   0.137   0.144   0.145
    42.85    0.133   0.134   0.133   0.141   0.144   0.136   0.134   0.135   0.133   0.136   0.134   0.132   0.135   0.130   0.134   0.134   0.138   0.136   0.135   0.141   0.137   0.140   0.134   0.136   0.130   0.131   0.135   0.142   0.137   0.137   0.135   0.137   0.136   0.144   0.143
    38.20    0.134   0.133   0.144   0.146   0.153   0.146   0.140   0.135   0.133   0.137   0.139   0.134   0.132   0.134   0.135   0.140   0.138   0.132   0.135   0.142   0.144   0.138   0.140   0.137   0.131   0.131   0.137   0.141   0.140   0.135   0.135   0.136   0.136   0.137   0.136
    33.55    0.131   0.131   0.139   0.141   0.151   0.147   0.142   0.136   0.133   0.137   0.135   0.139   0.138   0.136   0.134   0.137   0.135   0.134   0.137   0.146   0.141   0.138   0.143   0.134   0.136   0.132   0.134   0.138   0.143   0.140   0.140   0.138   0.143   0.136   0.136
    28.90    0.131   0.134   0.135   0.142   0.144   0.141   0.142   0.137   0.140   0.137   0.139   0.138   0.139   0.134   0.134   0.136   0.135   0.137   0.137   0.142   0.142   0.143   0.145   0.139   0.133   0.134   0.137   0.135   0.134   0.140   0.140   0.139   0.136   0.137   0.135
    24.25    0.128   0.131   0.139   0.145   0.141   0.136   0.135   0.132   0.143   0.138   0.140   0.141   0.141   0.134   0.135   0.137   0.134   0.130   0.136   0.138   0.138   0.133   0.141   0.141   0.140   0.137   0.133   0.135   0.135   0.135   0.140   0.140   0.135   0.130   0.136
    19.60    0.137   0.142   0.144   0.146   0.141   0.141   0.140   0.137   0.145   0.141   0.140   0.138   0.140   0.139   0.141   0.141   0.131   0.129   0.130   0.136   0.132   0.136   0.134   0.146   0.139   0.136   0.138   0.135   0.133   0.139   0.136   0.138   0.139   0.131   0.135
    14.95    0.132   0.141   0.151   0.145   0.143   0.143   0.135   0.138   0.146   0.141   0.144   0.135   0.142   0.144   0.141   0.136   0.137   0.130   0.135   0.134   0.143   0.139   0.138   0.138   0.136   0.141   0.140   0.140   0.135   0.138   0.138   0.137   0.140   0.137   0.135
    10.30    0.134   0.130   0.143   0.144   0.144   0.146   0.141   0.132   0.141   0.142   0.141   0.141   0.146   0.145   0.141   0.134   0.135   0.139   0.134   0.131   0.136   0.139   0.136   0.138   0.135   0.136   0.133   0.132   0.129   0.137   0.135   0.138   0.132   0.139   0.145
     5.65    0.136   0.135   0.140   0.137   0.138   0.141   0.139   0.137   0.139   0.138   0.139   0.142   0.143   0.140   0.138   0.138   0.143   0.143   0.133   0.132   0.132   0.132   0.138   0.137   0.142   0.138   0.131   0.130   0.128   0.127   0.127   0.131   0.134   0.141   0.142
     1.00    0.139   0.135   0.134   0.137   0.141   0.139   0.134   0.144   0.135   0.136   0.135   0.143   0.143   0.137   0.135   0.139   0.137   0.138   0.133   0.137   0.130   0.128   0.135   0.139   0.137   0.141   0.138   0.134   0.131   0.131   0.130   0.131   0.137   0.141   0.140

   Mean standard deviation across all grid points:
      u component:    0.339 m/s
      v component:    0.234 m/s
      w component:    0.139 m/s


U-component (X) statistics from the interpolated hub point:

   Mean =   9.9913 m/s
   TI   =   3.0504 %


Processing complete.  6102.4 CPU seconds used.
