
This summary file was generated by TurbSim (from OpenFAST-v3.5.3) on 20-Apr-2025 at 03:07:59.


Runtime Options:

1682697194  Random seed #1
    RANLUX  Type of random number generator
         F  Output binary HH turbulence parameters?
         F  Output formatted turbulence parameters?
         F  Output AeroDyn HH files?
         T  Output AeroDyn FF files?
         F  Output BLADED FF files?
         F  Output tower data?
         F  Output HAWC FF files?
         F  Output formatted FF files?
         T  Output coherent turbulence time step file?
 0 -  NONE  IEC turbulence models scaled to exact specified standard deviation


Turbine/Model Specifications:

        37  Vertical grid-point matrix dimension
        35  Horizontal grid-point matrix dimension
     0.250  Time step [seconds]
   900.000  Analysis time [seconds]
   900.000  Usable output time [seconds]
    89.350  Hub height [m]
   167.400  Grid height [m]
   158.100  Grid width [m]
     0.000  Vertical flow angle [degrees]
     0.000  Horizontal flow angle [degrees]


Meteorological Boundary Conditions:

    TIMESR  User-input time series spectral model
       N/A  IEC standard
       N/A  IEC turbulence characteristic
       N/A  IEC turbulence type
       N/A  IEC Extreme Turbulence Model (ETM) "c" parameter [m/s]
       PL   Wind profile type
    90.000  Reference height [m]
    10.000  Reference wind speed [m/s]
       N/A  Jet height [m]
     0.120  Power law exponent
     0.030  Surface roughness length [m]


Non-IEC Meteorological Boundary Conditions:

    45.000  Site latitude [degrees]
     0.050  Gradient Richardson number
     0.480  Friction or shear velocity [m/s]
       N/A  Mixing layer depth [m]
       N/A  Mean hub u'w' Reynolds stress
       N/A  Mean hub u'v' Reynolds stress
       N/A  Mean hub v'w' Reynolds stress


Spatial Coherence Models:

       IEC  u-component coherence model
       IEC  v-component coherence model
       IEC  w-component coherence model
(   12.000, 0.353E-03)  u-component coherence parameters
(   12.000, 0.353E-03)  v-component coherence parameters
(   12.000, 0.353E-03)  w-component coherence parameters
       N/A  Coherence exponent


Coherent Turbulence Scaling Parameters:

.\EventData
            Name of the path containing the coherent turbulence data files
       les  Type of coherent turbulence data files
     0.500  Disturbance scale (ratio of wave height to rotor diameter)
     0.500  Fractional location of tower centerline from right
     0.000  Fractional location of hub height from the bottom of the dataset
    30.000  Minimum start time for coherent structures [seconds]


Profiles from User-Defined Time-Series Input:

  Height   Wind Speed   Horizontal Angle   Vertical Angle
   (m)        (m/s)          (deg)              (deg)    
  ------   ----------   ----------------   --------------
   94.00      10.00          -0.63               -0.00


You have requested that the following file(s) be generated:

   /kfs3/scratch/agupta/Projects/RL_Incubator/FinalRuns_Veer/Seed4/./FFSim_Seed4/Cond00_v10.0_PL0.12_TI3.0/Case0_wdirp00/Seed_5/TurbSim/HighT12.bts (AeroDyn/TurbSim full-field wind file)


Turbulence Simulation Scaling Parameter Summary:

   Turbulence model used                            =  User-input time series
   Gradient Richardson number                       =    0.050
   Monin-Obukhov (M-O) z/L parameter                =    0.067
   Monin-Obukhov (M-O) length scale                 = 1340.250 m
   Mean wind speed at hub height                    =    9.991 m/s

   Wind profile type                                =  Power law
   Power law exponent                               =    0.120
   Mean shear across rotor disk                     =    0.019 (m/s)/m
   Assumed rotor diameter                           =  158.100 m
   Surface roughness length                         =    0.030 m

   Nyquist frequency of turbulent wind field        =    2.000 Hz

   Number of time steps in the FFT                  =     3600
   Number of time steps output                      =     3600
   Number of points simulated                       =     1296


Mean Flow Angles:

   Vertical   =   0.0 degrees
   Horizontal =   0.0 degrees

Mean Wind Speed Profile:

   Height    Wind Speed   Horizontal Angle  Vertical Angle  U-comp (X)   V-comp (Y)   W-comp (Z)
     (m)        (m/s)         (degrees)       (degrees)       (m/s)        (m/s)        (m/s)   
   ------    ----------   ----------------  --------------  ----------   ----------   ----------
    168.4       10.78            0.00            0.00         10.78         0.00         0.00
    163.7       10.74            0.00            0.00         10.74         0.00         0.00
    159.1       10.71            0.00            0.00         10.71         0.00         0.00
    154.4       10.67            0.00            0.00         10.67         0.00         0.00
    149.8       10.63            0.00            0.00         10.63         0.00         0.00
    145.1       10.59            0.00            0.00         10.59         0.00         0.00
    140.5       10.55            0.00            0.00         10.55         0.00         0.00
    135.8       10.51            0.00            0.00         10.51         0.00         0.00
    131.2       10.46            0.00            0.00         10.46         0.00         0.00
    126.5       10.42            0.00            0.00         10.42         0.00         0.00
    121.9       10.37            0.00            0.00         10.37         0.00         0.00
    117.2       10.32            0.00            0.00         10.32         0.00         0.00
    112.6       10.27            0.00            0.00         10.27         0.00         0.00
    107.9       10.22            0.00            0.00         10.22         0.00         0.00
    103.3       10.17            0.00            0.00         10.17         0.00         0.00
     98.6       10.11            0.00            0.00         10.11         0.00         0.00
     94.0       10.05            0.00            0.00         10.05         0.00         0.00
     89.3        9.99            0.00            0.00          9.99         0.00         0.00
     84.7        9.93            0.00            0.00          9.93         0.00         0.00
     80.0        9.86            0.00            0.00          9.86         0.00         0.00
     75.4        9.79            0.00            0.00          9.79         0.00         0.00
     70.7        9.72            0.00            0.00          9.72         0.00         0.00
     66.1        9.64            0.00            0.00          9.64         0.00         0.00
     61.4        9.55            0.00            0.00          9.55         0.00         0.00
     56.8        9.46            0.00            0.00          9.46         0.00         0.00
     52.1        9.37            0.00            0.00          9.37         0.00         0.00
     47.5        9.26            0.00            0.00          9.26         0.00         0.00
     42.8        9.15            0.00            0.00          9.15         0.00         0.00
     38.2        9.02            0.00            0.00          9.02         0.00         0.00
     33.5        8.88            0.00            0.00          8.88         0.00         0.00
     28.9        8.73            0.00            0.00          8.73         0.00         0.00
     24.2        8.54            0.00            0.00          8.54         0.00         0.00
     19.6        8.33            0.00            0.00          8.33         0.00         0.00
     14.9        8.06            0.00            0.00          8.06         0.00         0.00
     10.3        7.71            0.00            0.00          7.71         0.00         0.00
      5.6        7.17            0.00            0.00          7.17         0.00         0.00
      1.0        5.83            0.00            0.00          5.83         0.00         0.00


Harvested Random Seeds after Generation of the Random Numbers:

     65026800 K 1
            0 K 2


Hub-Height Simulated Turbulence Statistical Summary:

   Type of Wind        Min (m/s)   Mean (m/s)    Max (m/s)  Sigma (m/s)       TI (%)
   ----------------    ---------   ----------    ---------  -----------       ------
   Longitudinal (u)         9.20         9.99        10.87        0.303        3.029
   Lateral (v)             -0.82         0.00         0.69        0.241        2.413
   Vertical (w)            -0.41         0.00         0.52        0.131        1.309
   U component              9.20         9.99        10.87        0.303        3.029
   V component             -0.82         0.00         0.69        0.241        2.413
   W component             -0.41         0.00         0.52        0.131        1.309
   Horizontal (U&V)         9.20         9.99        10.87        0.303        3.027
   Total                    9.21        10.00        10.87        0.303        3.027

                       Min Reynolds     Mean Reynolds    Max Reynolds    Correlation
   Product             Stress (m/s)^2   Stress (m/s)^2   Stress (m/s)^2  Coefficient
   ----------------    --------------   --------------   --------------  -----------
   u'w'                     -0.264            -0.001             0.253        -0.025
   u'v'                     -0.433            -0.015             0.332        -0.203
   v'w'                     -0.220             0.000             0.343         0.004


   Friction Velocity (Ustar)  =      0.031 m/s
   Maximum Instantaneous TKE  =      0.446 (m/s)^2
   Maximum Instantaneous CTKE =      0.217 (m/s)^2


Grid Point Variance Summary:

   Y-coord  -79.05  -74.40  -69.75  -65.10  -60.45  -55.80  -51.15  -46.50  -41.85  -37.20  -32.55  -27.90  -23.25  -18.60  -13.95   -9.30   -4.65    0.00    4.65    9.30   13.95   18.60   23.25   27.90   32.55   37.20   41.85   46.50   51.15   55.80   60.45   65.10   69.75   74.40   79.05

   Height   Standard deviation at grid points for the u component:
   168.40    0.332   0.299   0.304   0.310   0.330   0.329   0.336   0.332   0.303   0.293   0.295   0.307   0.295   0.310   0.333   0.329   0.317   0.339   0.324   0.341   0.325   0.321   0.324   0.317   0.313   0.323   0.337   0.316   0.298   0.289   0.288   0.255   0.260   0.259   0.278
   163.75    0.317   0.306   0.287   0.295   0.306   0.326   0.320   0.310   0.307   0.289   0.298   0.317   0.307   0.321   0.343   0.328   0.347   0.328   0.338   0.350   0.334   0.338   0.312   0.328   0.341   0.312   0.290   0.309   0.300   0.305   0.274   0.257   0.243   0.261   0.257
   159.10    0.316   0.287   0.294   0.301   0.309   0.303   0.319   0.319   0.292   0.315   0.319   0.347   0.346   0.371   0.358   0.339   0.335   0.339   0.352   0.351   0.329   0.309   0.327   0.331   0.345   0.302   0.297   0.304   0.303   0.309   0.286   0.252   0.242   0.249   0.254
   154.45    0.306   0.302   0.286   0.302   0.291   0.271   0.281   0.299   0.310   0.314   0.331   0.342   0.339   0.349   0.330   0.321   0.341   0.346   0.357   0.351   0.337   0.317   0.316   0.321   0.327   0.283   0.302   0.307   0.294   0.281   0.292   0.271   0.261   0.256   0.262
   149.80    0.308   0.313   0.304   0.290   0.302   0.292   0.310   0.304   0.315   0.313   0.348   0.356   0.340   0.341   0.308   0.321   0.311   0.333   0.328   0.335   0.315   0.308   0.317   0.292   0.300   0.308   0.309   0.333   0.311   0.303   0.304   0.271   0.294   0.282   0.268
   145.15    0.319   0.311   0.275   0.297   0.294   0.291   0.310   0.331   0.349   0.336   0.348   0.363   0.369   0.330   0.315   0.304   0.330   0.306   0.320   0.293   0.314   0.312   0.285   0.304   0.281   0.306   0.330   0.306   0.314   0.309   0.293   0.280   0.282   0.284   0.280
   140.50    0.335   0.321   0.314   0.283   0.301   0.302   0.297   0.298   0.325   0.337   0.346   0.350   0.342   0.328   0.307   0.300   0.310   0.315   0.311   0.300   0.303   0.307   0.299   0.300   0.289   0.307   0.315   0.329   0.310   0.303   0.286   0.287   0.295   0.287   0.298
   135.85    0.315   0.325   0.326   0.321   0.330   0.295   0.289   0.294   0.315   0.308   0.331   0.365   0.346   0.337   0.308   0.312   0.300   0.311   0.312   0.300   0.294   0.270   0.280   0.289   0.293   0.314   0.327   0.331   0.318   0.317   0.301   0.283   0.284   0.283   0.323
   131.20    0.312   0.294   0.332   0.361   0.322   0.290   0.306   0.317   0.328   0.331   0.338   0.337   0.343   0.329   0.318   0.301   0.327   0.334   0.319   0.298   0.278   0.275   0.294   0.292   0.304   0.322   0.317   0.328   0.325   0.320   0.305   0.292   0.295   0.293   0.322
   126.55    0.303   0.291   0.312   0.329   0.318   0.319   0.295   0.303   0.301   0.339   0.339   0.345   0.346   0.352   0.342   0.345   0.315   0.329   0.322   0.306   0.286   0.272   0.296   0.297   0.307   0.318   0.314   0.345   0.358   0.338   0.329   0.312   0.313   0.314   0.315
   121.90    0.303   0.315   0.290   0.317   0.334   0.343   0.313   0.303   0.308   0.315   0.319   0.319   0.313   0.316   0.338   0.311   0.332   0.321   0.304   0.330   0.304   0.271   0.291   0.288   0.283   0.313   0.323   0.353   0.338   0.339   0.331   0.301   0.325   0.326   0.325
   117.25    0.325   0.324   0.278   0.302   0.326   0.333   0.324   0.299   0.292   0.307   0.310   0.305   0.302   0.304   0.320   0.308   0.304   0.339   0.323   0.300   0.300   0.276   0.281   0.273   0.280   0.294   0.311   0.329   0.330   0.310   0.305   0.308   0.322   0.331   0.339
   112.60    0.347   0.313   0.297   0.285   0.320   0.325   0.326   0.318   0.301   0.321   0.341   0.334   0.326   0.287   0.307   0.327   0.331   0.325   0.328   0.307   0.325   0.303   0.298   0.303   0.300   0.281   0.291   0.303   0.320   0.308   0.311   0.317   0.339   0.351   0.328
   107.95    0.343   0.328   0.306   0.294   0.302   0.313   0.318   0.317   0.333   0.345   0.329   0.349   0.330   0.311   0.298   0.293   0.313   0.337   0.314   0.310   0.307   0.301   0.301   0.316   0.319   0.308   0.309   0.295   0.301   0.299   0.292   0.313   0.301   0.329   0.331
   103.30    0.319   0.299   0.296   0.280   0.309   0.299   0.305   0.313   0.321   0.337   0.350   0.334   0.338   0.325   0.324   0.313   0.335   0.333   0.306   0.301   0.273   0.293   0.323   0.335   0.331   0.338   0.302   0.277   0.278   0.277   0.284   0.289   0.294   0.326   0.312
    98.65    0.307   0.302   0.275   0.272   0.286   0.315   0.309   0.323   0.312   0.339   0.350   0.347   0.330   0.325   0.304   0.323   0.333   0.308   0.302   0.306   0.281   0.294   0.317   0.320   0.328   0.315   0.315   0.284   0.282   0.273   0.262   0.291   0.298   0.310   0.309
    94.00    0.312   0.327   0.294   0.286   0.293   0.312   0.304   0.312   0.309   0.317   0.334   0.353   0.359   0.326   0.324   0.324   0.318   0.317   0.315   0.304   0.287   0.312   0.318   0.340   0.324   0.314   0.314   0.289   0.303   0.272   0.269   0.277   0.284   0.293   0.280
    89.35    0.314   0.319   0.317   0.295   0.293   0.321   0.335   0.315   0.315   0.337   0.321   0.317   0.344   0.355   0.317   0.319   0.328   0.303   0.296   0.327   0.309   0.308   0.333   0.319   0.320   0.306   0.289   0.295   0.314   0.282   0.269   0.253   0.275   0.288   0.311
    84.70    0.331   0.328   0.291   0.292   0.316   0.313   0.335   0.314   0.306   0.324   0.324   0.336   0.367   0.366   0.356   0.333   0.323   0.322   0.312   0.317   0.326   0.337   0.350   0.327   0.317   0.298   0.306   0.313   0.311   0.307   0.266   0.265   0.273   0.287   0.307
    80.05    0.334   0.326   0.307   0.312   0.334   0.328   0.328   0.328   0.309   0.295   0.307   0.338   0.363   0.378   0.345   0.336   0.331   0.315   0.317   0.309   0.312   0.332   0.331   0.337   0.323   0.318   0.311   0.307   0.334   0.313   0.289   0.281   0.294   0.276   0.293
    75.40    0.325   0.304   0.314   0.321   0.320   0.347   0.329   0.316   0.326   0.318   0.340   0.332   0.350   0.368   0.371   0.312   0.321   0.326   0.297   0.304   0.298   0.342   0.339   0.356   0.329   0.330   0.307   0.334   0.327   0.338   0.315   0.284   0.277   0.283   0.290
    70.75    0.306   0.314   0.295   0.327   0.347   0.339   0.354   0.350   0.354   0.327   0.348   0.366   0.369   0.368   0.360   0.322   0.324   0.329   0.314   0.312   0.333   0.352   0.360   0.377   0.352   0.328   0.329   0.345   0.358   0.347   0.304   0.280   0.288   0.294   0.291
    66.10    0.302   0.307   0.302   0.320   0.325   0.349   0.338   0.327   0.350   0.338   0.341   0.357   0.364   0.366   0.336   0.313   0.335   0.354   0.343   0.314   0.329   0.341   0.361   0.394   0.397   0.382   0.352   0.397   0.403   0.353   0.317   0.300   0.288   0.285   0.283
    61.45    0.321   0.352   0.340   0.345   0.311   0.339   0.332   0.313   0.341   0.353   0.339   0.356   0.350   0.347   0.348   0.327   0.333   0.374   0.361   0.347   0.324   0.337   0.364   0.357   0.391   0.370   0.365   0.410   0.415   0.354   0.349   0.322   0.306   0.304   0.308
    56.80    0.349   0.350   0.329   0.323   0.327   0.335   0.322   0.339   0.350   0.342   0.349   0.358   0.339   0.342   0.329   0.320   0.353   0.372   0.375   0.359   0.331   0.347   0.364   0.358   0.368   0.404   0.416   0.423   0.416   0.372   0.344   0.340   0.329   0.321   0.318
    52.15    0.325   0.328   0.300   0.323   0.341   0.334   0.339   0.340   0.340   0.342   0.335   0.336   0.308   0.317   0.317   0.348   0.366   0.354   0.351   0.337   0.325   0.335   0.353   0.379   0.386   0.406   0.404   0.384   0.389   0.398   0.371   0.369   0.371   0.350   0.337
    47.50    0.327   0.336   0.326   0.336   0.346   0.343   0.329   0.333   0.329   0.330   0.311   0.324   0.319   0.311   0.323   0.350   0.342   0.341   0.336   0.344   0.336   0.359   0.345   0.381   0.366   0.394   0.398   0.377   0.375   0.378   0.373   0.374   0.387   0.364   0.353
    42.85    0.339   0.355   0.334   0.340   0.344   0.348   0.338   0.322   0.331   0.304   0.319   0.312   0.311   0.307   0.338   0.350   0.351   0.327   0.342   0.345   0.366   0.367   0.357   0.355   0.378   0.381   0.384   0.398   0.372   0.354   0.344   0.390   0.391   0.391   0.385
    38.20    0.323   0.353   0.348   0.345   0.344   0.330   0.338   0.339   0.314   0.316   0.318   0.322   0.317   0.336   0.355   0.349   0.367   0.352   0.371   0.376   0.364   0.387   0.380   0.370   0.365   0.370   0.393   0.392   0.388   0.376   0.388   0.402   0.416   0.413   0.397
    33.55    0.337   0.319   0.346   0.336   0.352   0.330   0.326   0.338   0.347   0.317   0.286   0.313   0.325   0.356   0.349   0.373   0.355   0.338   0.345   0.376   0.378   0.421   0.391   0.359   0.365   0.380   0.388   0.377   0.389   0.382   0.390   0.386   0.386   0.404   0.377
    28.90    0.332   0.349   0.326   0.324   0.329   0.312   0.323   0.348   0.360   0.330   0.301   0.300   0.315   0.344   0.362   0.374   0.349   0.335   0.359   0.365   0.370   0.407   0.392   0.376   0.367   0.394   0.406   0.402   0.406   0.416   0.390   0.370   0.373   0.369   0.370
    24.25    0.332   0.348   0.343   0.334   0.349   0.323   0.317   0.344   0.334   0.309   0.315   0.300   0.318   0.351   0.374   0.375   0.358   0.366   0.378   0.363   0.357   0.400   0.393   0.368   0.367   0.371   0.378   0.381   0.380   0.391   0.363   0.371   0.362   0.369   0.350
    19.60    0.323   0.312   0.334   0.326   0.340   0.299   0.312   0.343   0.320   0.332   0.327   0.319   0.347   0.359   0.346   0.388   0.372   0.359   0.353   0.368   0.357   0.387   0.377   0.362   0.373   0.366   0.379   0.405   0.373   0.370   0.372   0.364   0.370   0.370   0.345
    14.95    0.309   0.291   0.328   0.335   0.328   0.308   0.340   0.311   0.313   0.345   0.365   0.351   0.339   0.350   0.340   0.362   0.362   0.358   0.346   0.352   0.367   0.341   0.374   0.402   0.372   0.362   0.370   0.374   0.391   0.400   0.373   0.378   0.363   0.354   0.332
    10.30    0.310   0.319   0.330   0.348   0.319   0.327   0.329   0.329   0.326   0.352   0.380   0.362   0.367   0.365   0.390   0.364   0.362   0.366   0.363   0.359   0.360   0.362   0.381   0.379   0.378   0.382   0.359   0.390   0.387   0.389   0.374   0.353   0.360   0.347   0.323
     5.65    0.329   0.320   0.335   0.341   0.328   0.342   0.340   0.360   0.342   0.350   0.364   0.367   0.369   0.399   0.418   0.394   0.383   0.371   0.361   0.355   0.366   0.392   0.366   0.357   0.353   0.368   0.373   0.374   0.366   0.349   0.346   0.354   0.353   0.334   0.309
     1.00    0.324   0.319   0.341   0.349   0.318   0.336   0.348   0.343   0.350   0.328   0.353   0.368   0.396   0.397   0.410   0.410   0.394   0.354   0.353   0.364   0.357   0.373   0.357   0.365   0.348   0.345   0.361   0.347   0.320   0.302   0.334   0.308   0.300   0.276   0.295

   Height   Standard deviation at grid points for the v component:
   168.40    0.260   0.260   0.269   0.248   0.254   0.250   0.245   0.235   0.217   0.225   0.237   0.236   0.235   0.225   0.228   0.223   0.228   0.231   0.239   0.231   0.221   0.241   0.235   0.241   0.235   0.226   0.227   0.215   0.223   0.223   0.229   0.231   0.230   0.223   0.224
   163.75    0.265   0.254   0.257   0.255   0.246   0.238   0.233   0.233   0.226   0.224   0.231   0.226   0.229   0.221   0.230   0.236   0.239   0.242   0.244   0.239   0.238   0.246   0.235   0.239   0.234   0.238   0.230   0.221   0.232   0.223   0.230   0.221   0.230   0.222   0.225
   159.10    0.253   0.249   0.240   0.237   0.238   0.238   0.233   0.224   0.217   0.216   0.228   0.223   0.229   0.236   0.240   0.248   0.245   0.248   0.245   0.241   0.242   0.230   0.232   0.233   0.236   0.242   0.240   0.234   0.242   0.223   0.222   0.220   0.222   0.225   0.232
   154.45    0.237   0.232   0.227   0.233   0.224   0.228   0.240   0.228   0.223   0.218   0.217   0.226   0.227   0.236   0.242   0.240   0.244   0.245   0.247   0.241   0.239   0.230   0.238   0.226   0.233   0.238   0.243   0.250   0.244   0.238   0.228   0.218   0.225   0.237   0.226
   149.80    0.233   0.230   0.221   0.231   0.225   0.214   0.213   0.216   0.221   0.206   0.217   0.234   0.233   0.230   0.229   0.238   0.253   0.243   0.241   0.239   0.232   0.225   0.233   0.239   0.231   0.226   0.253   0.248   0.235   0.243   0.232   0.226   0.227   0.229   0.231
   145.15    0.226   0.225   0.221   0.225   0.222   0.217   0.214   0.215   0.216   0.209   0.217   0.232   0.235   0.235   0.241   0.253   0.260   0.248   0.232   0.229   0.222   0.227   0.234   0.229   0.239   0.253   0.252   0.252   0.234   0.239   0.236   0.236   0.241   0.232   0.231
   140.50    0.228   0.218   0.221   0.222   0.218   0.214   0.220   0.214   0.215   0.221   0.221   0.224   0.230   0.237   0.251   0.259   0.244   0.240   0.235   0.229   0.219   0.224   0.236   0.216   0.229   0.235   0.245   0.238   0.241   0.248   0.243   0.239   0.246   0.234   0.239
   135.85    0.228   0.224   0.226   0.214   0.225   0.221   0.212   0.216   0.216   0.214   0.218   0.220   0.231   0.239   0.248   0.250   0.242   0.242   0.235   0.221   0.215   0.221   0.222   0.222   0.227   0.238   0.240   0.227   0.235   0.239   0.247   0.238   0.219   0.223   0.238
   131.20    0.214   0.223   0.217   0.218   0.220   0.219   0.215   0.205   0.218   0.206   0.208   0.223   0.233   0.246   0.241   0.243   0.235   0.235   0.225   0.220   0.212   0.216   0.216   0.216   0.216   0.229   0.230   0.236   0.236   0.233   0.231   0.226   0.231   0.228   0.236
   126.55    0.226   0.225   0.220   0.219   0.222   0.218   0.220   0.213   0.202   0.199   0.212   0.221   0.233   0.243   0.228   0.239   0.213   0.225   0.220   0.222   0.207   0.212   0.220   0.215   0.212   0.216   0.224   0.224   0.224   0.224   0.222   0.210   0.217   0.222   0.236
   121.90    0.216   0.230   0.226   0.229   0.222   0.219   0.213   0.216   0.213   0.211   0.214   0.221   0.232   0.236   0.236   0.230   0.219   0.222   0.219   0.214   0.198   0.208   0.218   0.209   0.218   0.214   0.214   0.227   0.226   0.221   0.210   0.207   0.209   0.213   0.224
   117.25    0.217   0.228   0.234   0.228   0.214   0.209   0.212   0.214   0.212   0.210   0.219   0.213   0.224   0.225   0.229   0.234   0.223   0.229   0.214   0.199   0.211   0.216   0.221   0.212   0.227   0.226   0.220   0.228   0.221   0.220   0.209   0.217   0.210   0.213   0.214
   112.60    0.226   0.238   0.231   0.220   0.221   0.223   0.214   0.218   0.234   0.224   0.224   0.232   0.226   0.216   0.230   0.221   0.228   0.231   0.214   0.211   0.204   0.207   0.223   0.222   0.211   0.218   0.224   0.232   0.225   0.213   0.216   0.219   0.203   0.201   0.211
   107.95    0.234   0.239   0.242   0.225   0.232   0.232   0.231   0.230   0.224   0.225   0.227   0.237   0.240   0.226   0.219   0.223   0.231   0.234   0.235   0.207   0.200   0.201   0.217   0.217   0.227   0.227   0.222   0.226   0.226   0.220   0.225   0.211   0.209   0.205   0.218
   103.30    0.227   0.229   0.224   0.216   0.226   0.233   0.240   0.231   0.226   0.223   0.230   0.225   0.233   0.230   0.222   0.233   0.240   0.246   0.231   0.224   0.221   0.217   0.219   0.212   0.223   0.219   0.223   0.226   0.225   0.230   0.224   0.218   0.209   0.209   0.221
    98.65    0.213   0.214   0.221   0.211   0.216   0.232   0.238   0.230   0.225   0.220   0.231   0.235   0.243   0.227   0.233   0.233   0.244   0.242   0.236   0.229   0.219   0.208   0.211   0.200   0.214   0.218   0.221   0.225   0.225   0.221   0.229   0.222   0.217   0.215   0.211
    94.00    0.213   0.220   0.225   0.232   0.229   0.233   0.239   0.243   0.223   0.232   0.225   0.245   0.246   0.228   0.230   0.247   0.246   0.234   0.236   0.223   0.221   0.203   0.206   0.215   0.216   0.217   0.224   0.225   0.224   0.215   0.216   0.224   0.210   0.209   0.212
    89.35    0.225   0.223   0.225   0.222   0.224   0.219   0.234   0.238   0.227   0.233   0.232   0.236   0.244   0.243   0.234   0.249   0.245   0.241   0.236   0.233   0.215   0.212   0.212   0.219   0.210   0.214   0.218   0.216   0.221   0.226   0.219   0.213   0.218   0.217   0.211
    84.70    0.222   0.223   0.225   0.225   0.221   0.230   0.232   0.231   0.228   0.230   0.233   0.246   0.244   0.235   0.243   0.242   0.236   0.237   0.228   0.220   0.218   0.227   0.227   0.223   0.216   0.208   0.219   0.224   0.219   0.222   0.218   0.211   0.216   0.217   0.207
    80.05    0.217   0.231   0.223   0.217   0.212   0.215   0.226   0.231   0.224   0.215   0.234   0.246   0.244   0.250   0.242   0.243   0.235   0.250   0.223   0.233   0.224   0.223   0.226   0.231   0.229   0.217   0.211   0.220   0.225   0.213   0.217   0.216   0.225   0.205   0.204
    75.40    0.228   0.230   0.219   0.225   0.225   0.229   0.222   0.224   0.225   0.226   0.227   0.242   0.249   0.233   0.238   0.244   0.243   0.241   0.227   0.228   0.217   0.220   0.220   0.223   0.222   0.208   0.218   0.221   0.228   0.230   0.218   0.210   0.205   0.205   0.209
    70.75    0.227   0.226   0.232   0.228   0.230   0.232   0.234   0.231   0.224   0.244   0.243   0.251   0.235   0.239   0.233   0.232   0.249   0.237   0.228   0.223   0.221   0.213   0.217   0.224   0.221   0.218   0.213   0.222   0.223   0.221   0.218   0.210   0.208   0.215   0.217
    66.10    0.219   0.218   0.230   0.232   0.236   0.237   0.234   0.227   0.238   0.240   0.242   0.246   0.241   0.241   0.237   0.234   0.242   0.239   0.223   0.220   0.227   0.216   0.222   0.217   0.217   0.227   0.231   0.234   0.232   0.226   0.213   0.217   0.209   0.217   0.220
    61.45    0.228   0.214   0.231   0.239   0.235   0.239   0.243   0.237   0.232   0.240   0.245   0.250   0.242   0.243   0.234   0.239   0.246   0.236   0.233   0.221   0.222   0.225   0.230   0.227   0.221   0.228   0.237   0.223   0.224   0.229   0.215   0.208   0.221   0.214   0.220
    56.80    0.217   0.221   0.227   0.239   0.229   0.227   0.242   0.239   0.234   0.250   0.242   0.245   0.239   0.237   0.238   0.245   0.239   0.237   0.245   0.225   0.220   0.210   0.218   0.217   0.214   0.217   0.218   0.229   0.225   0.230   0.222   0.218   0.226   0.214   0.217
    52.15    0.222   0.232   0.238   0.246   0.239   0.231   0.239   0.242   0.255   0.261   0.254   0.245   0.245   0.240   0.235   0.241   0.247   0.241   0.232   0.227   0.214   0.221   0.211   0.202   0.214   0.224   0.215   0.215   0.218   0.216   0.229   0.223   0.225   0.225   0.226
    47.50    0.236   0.235   0.231   0.232   0.228   0.240   0.245   0.243   0.243   0.255   0.251   0.254   0.246   0.234   0.231   0.223   0.229   0.237   0.233   0.227   0.225   0.218   0.224   0.223   0.217   0.217   0.217   0.199   0.209   0.207   0.223   0.239   0.233   0.238   0.232
    42.85    0.229   0.241   0.229   0.231   0.232   0.229   0.233   0.230   0.229   0.243   0.237   0.246   0.245   0.220   0.231   0.229   0.224   0.232   0.234   0.236   0.234   0.221   0.234   0.226   0.216   0.209   0.202   0.216   0.209   0.204   0.215   0.216   0.234   0.234   0.237
    38.20    0.241   0.234   0.236   0.231   0.231   0.228   0.218   0.216   0.224   0.235   0.238   0.255   0.233   0.232   0.245   0.250   0.240   0.234   0.239   0.244   0.246   0.243   0.225   0.233   0.219   0.219   0.228   0.229   0.230   0.220   0.228   0.222   0.232   0.223   0.235
    33.55    0.221   0.229   0.226   0.219   0.221   0.218   0.219   0.219   0.231   0.246   0.255   0.243   0.236   0.247   0.245   0.245   0.237   0.240   0.248   0.248   0.236   0.241   0.238   0.222   0.237   0.234   0.228   0.233   0.224   0.229   0.226   0.218   0.226   0.237   0.234
    28.90    0.226   0.221   0.223   0.234   0.231   0.222   0.217   0.234   0.224   0.249   0.250   0.242   0.240   0.241   0.237   0.231   0.234   0.238   0.245   0.236   0.242   0.233   0.221   0.219   0.232   0.237   0.234   0.231   0.233   0.226   0.224   0.219   0.226   0.226   0.227
    24.25    0.231   0.232   0.226   0.237   0.233   0.229   0.231   0.220   0.232   0.241   0.232   0.230   0.229   0.234   0.236   0.240   0.235   0.235   0.239   0.237   0.235   0.234   0.223   0.228   0.231   0.239   0.232   0.221   0.221   0.233   0.237   0.227   0.230   0.226   0.224
    19.60    0.240   0.240   0.230   0.231   0.237   0.235   0.225   0.229   0.215   0.236   0.237   0.226   0.221   0.227   0.237   0.242   0.226   0.233   0.231   0.236   0.225   0.215   0.222   0.228   0.239   0.229   0.228   0.216   0.223   0.235   0.231   0.230   0.228   0.226   0.225
    14.95    0.235   0.234   0.235   0.234   0.232   0.235   0.233   0.224   0.218   0.228   0.239   0.229   0.217   0.225   0.241   0.230   0.231   0.224   0.228   0.217   0.224   0.224   0.224   0.230   0.228   0.236   0.236   0.229   0.225   0.223   0.225   0.218   0.226   0.223   0.213
    10.30    0.236   0.235   0.233   0.245   0.251   0.236   0.224   0.223   0.218   0.219   0.227   0.218   0.221   0.220   0.228   0.232   0.228   0.232   0.233   0.220   0.220   0.224   0.218   0.210   0.217   0.236   0.247   0.221   0.228   0.220   0.227   0.228   0.223   0.213   0.213
     5.65    0.233   0.236   0.245   0.255   0.251   0.226   0.222   0.226   0.231   0.226   0.228   0.215   0.212   0.219   0.230   0.225   0.227   0.235   0.233   0.223   0.213   0.219   0.219   0.218   0.226   0.237   0.240   0.246   0.233   0.225   0.240   0.227   0.220   0.218   0.219
     1.00    0.240   0.242   0.251   0.252   0.249   0.229   0.227   0.228   0.233   0.240   0.239   0.223   0.216   0.228   0.218   0.217   0.226   0.237   0.230   0.217   0.226   0.223   0.227   0.233   0.238   0.241   0.230   0.235   0.235   0.234   0.231   0.214   0.214   0.210   0.203

   Height   Standard deviation at grid points for the w component:
   168.40    0.152   0.150   0.146   0.141   0.146   0.142   0.145   0.143   0.143   0.142   0.142   0.138   0.138   0.136   0.143   0.144   0.147   0.152   0.148   0.146   0.148   0.142   0.139   0.132   0.131   0.133   0.132   0.134   0.138   0.142   0.136   0.132   0.133   0.129   0.132
   163.75    0.148   0.148   0.143   0.142   0.144   0.142   0.145   0.146   0.147   0.142   0.141   0.142   0.144   0.146   0.140   0.147   0.148   0.143   0.144   0.142   0.144   0.139   0.139   0.135   0.137   0.138   0.139   0.136   0.139   0.138   0.131   0.128   0.133   0.132   0.133
   159.10    0.145   0.143   0.146   0.142   0.146   0.149   0.148   0.145   0.148   0.145   0.143   0.144   0.145   0.139   0.141   0.141   0.145   0.146   0.141   0.141   0.138   0.136   0.136   0.138   0.138   0.134   0.132   0.136   0.140   0.139   0.130   0.133   0.132   0.134   0.136
   154.45    0.147   0.145   0.145   0.145   0.142   0.145   0.146   0.144   0.143   0.143   0.140   0.140   0.140   0.136   0.136   0.137   0.140   0.133   0.138   0.139   0.137   0.135   0.134   0.137   0.136   0.137   0.141   0.141   0.138   0.135   0.133   0.133   0.133   0.135   0.132
   149.80    0.148   0.147   0.146   0.144   0.148   0.153   0.146   0.141   0.133   0.136   0.137   0.141   0.139   0.140   0.131   0.136   0.140   0.137   0.136   0.138   0.134   0.141   0.136   0.134   0.139   0.139   0.140   0.134   0.138   0.134   0.129   0.133   0.129   0.134   0.132
   145.15    0.145   0.148   0.147   0.144   0.148   0.150   0.154   0.151   0.140   0.141   0.141   0.140   0.144   0.140   0.135   0.138   0.138   0.135   0.130   0.139   0.140   0.149   0.148   0.141   0.140   0.140   0.135   0.139   0.133   0.136   0.135   0.133   0.131   0.131   0.130
   140.50    0.157   0.152   0.154   0.146   0.147   0.154   0.153   0.146   0.148   0.152   0.145   0.145   0.140   0.142   0.140   0.140   0.137   0.138   0.138   0.140   0.145   0.142   0.144   0.144   0.144   0.138   0.135   0.139   0.136   0.131   0.133   0.134   0.131   0.132   0.136
   135.85    0.150   0.147   0.153   0.149   0.149   0.152   0.158   0.153   0.153   0.153   0.159   0.157   0.151   0.143   0.136   0.135   0.138   0.141   0.140   0.142   0.145   0.145   0.141   0.138   0.138   0.133   0.134   0.137   0.139   0.135   0.133   0.135   0.138   0.131   0.139
   131.20    0.148   0.149   0.152   0.154   0.150   0.154   0.162   0.158   0.160   0.156   0.161   0.158   0.156   0.147   0.141   0.141   0.146   0.139   0.138   0.144   0.148   0.144   0.137   0.137   0.133   0.130   0.133   0.133   0.136   0.132   0.137   0.139   0.140   0.135   0.138
   126.55    0.146   0.146   0.147   0.145   0.153   0.152   0.156   0.166   0.159   0.159   0.166   0.166   0.163   0.155   0.145   0.142   0.146   0.147   0.145   0.139   0.142   0.142   0.138   0.138   0.136   0.134   0.133   0.133   0.130   0.137   0.135   0.137   0.133   0.133   0.136
   121.90    0.145   0.139   0.144   0.146   0.140   0.147   0.154   0.164   0.162   0.164   0.165   0.164   0.158   0.154   0.156   0.154   0.156   0.151   0.146   0.141   0.138   0.140   0.137   0.134   0.134   0.132   0.133   0.135   0.133   0.136   0.137   0.136   0.137   0.131   0.140
   117.25    0.141   0.149   0.147   0.147   0.144   0.150   0.160   0.164   0.167   0.165   0.165   0.162   0.158   0.153   0.149   0.157   0.153   0.158   0.145   0.146   0.136   0.138   0.137   0.139   0.137   0.136   0.138   0.134   0.133   0.132   0.137   0.134   0.137   0.141   0.142
   112.60    0.149   0.147   0.149   0.148   0.147   0.151   0.163   0.165   0.165   0.168   0.163   0.156   0.153   0.149   0.154   0.153   0.152   0.152   0.149   0.144   0.141   0.138   0.136   0.139   0.138   0.137   0.133   0.133   0.134   0.132   0.137   0.137   0.140   0.140   0.144
   107.95    0.152   0.158   0.148   0.157   0.151   0.151   0.155   0.158   0.163   0.159   0.157   0.157   0.152   0.151   0.142   0.146   0.155   0.148   0.148   0.143   0.141   0.135   0.134   0.133   0.136   0.136   0.135   0.136   0.143   0.135   0.139   0.135   0.137   0.146   0.148
   103.30    0.152   0.159   0.155   0.155   0.156   0.154   0.152   0.154   0.156   0.160   0.156   0.148   0.150   0.145   0.143   0.146   0.146   0.144   0.139   0.138   0.137   0.140   0.136   0.133   0.137   0.135   0.141   0.136   0.141   0.141   0.142   0.140   0.143   0.152   0.150
    98.65    0.155   0.157   0.157   0.153   0.153   0.146   0.156   0.155   0.159   0.156   0.148   0.147   0.148   0.143   0.142   0.146   0.143   0.139   0.134   0.133   0.138   0.137   0.136   0.140   0.135   0.142   0.142   0.142   0.136   0.135   0.138   0.132   0.140   0.149   0.147
    94.00    0.160   0.168   0.161   0.157   0.151   0.150   0.152   0.153   0.158   0.154   0.143   0.143   0.141   0.149   0.144   0.139   0.144   0.140   0.134   0.130   0.133   0.135   0.132   0.133   0.139   0.146   0.138   0.138   0.137   0.136   0.135   0.141   0.143   0.144   0.150
    89.35    0.155   0.155   0.151   0.146   0.147   0.140   0.142   0.145   0.149   0.145   0.143   0.137   0.142   0.142   0.140   0.135   0.142   0.131   0.131   0.135   0.137   0.140   0.136   0.136   0.143   0.138   0.135   0.139   0.136   0.134   0.144   0.144   0.143   0.145   0.146
    84.70    0.149   0.148   0.147   0.136   0.140   0.140   0.143   0.141   0.138   0.143   0.138   0.138   0.139   0.140   0.140   0.134   0.139   0.141   0.133   0.135   0.136   0.135   0.137   0.137   0.141   0.143   0.139   0.140   0.138   0.143   0.146   0.150   0.145   0.140   0.145
    80.05    0.147   0.145   0.139   0.136   0.137   0.135   0.142   0.145   0.135   0.134   0.132   0.136   0.143   0.144   0.139   0.141   0.139   0.139   0.137   0.137   0.134   0.134   0.132   0.131   0.136   0.131   0.131   0.136   0.145   0.144   0.142   0.151   0.152   0.146   0.147
    75.40    0.149   0.140   0.136   0.134   0.138   0.141   0.138   0.138   0.134   0.132   0.135   0.138   0.135   0.137   0.138   0.142   0.136   0.136   0.143   0.148   0.138   0.131   0.132   0.139   0.138   0.131   0.132   0.137   0.140   0.147   0.146   0.141   0.142   0.143   0.148
    70.75    0.146   0.142   0.140   0.140   0.137   0.138   0.136   0.137   0.133   0.136   0.141   0.140   0.139   0.139   0.139   0.134   0.138   0.137   0.138   0.139   0.139   0.136   0.139   0.139   0.136   0.129   0.134   0.137   0.144   0.146   0.144   0.138   0.137   0.144   0.142
    66.10    0.143   0.139   0.136   0.137   0.145   0.139   0.137   0.131   0.134   0.134   0.140   0.139   0.143   0.143   0.140   0.129   0.133   0.134   0.131   0.138   0.141   0.139   0.136   0.141   0.136   0.137   0.138   0.141   0.142   0.141   0.141   0.140   0.141   0.143   0.144
    61.45    0.135   0.142   0.136   0.143   0.144   0.136   0.132   0.133   0.131   0.135   0.134   0.133   0.139   0.142   0.136   0.131   0.134   0.134   0.138   0.139   0.138   0.135   0.138   0.143   0.134   0.135   0.137   0.141   0.144   0.138   0.136   0.138   0.136   0.140   0.139
    56.80    0.130   0.135   0.137   0.142   0.142   0.137   0.135   0.134   0.130   0.133   0.131   0.135   0.134   0.142   0.134   0.133   0.133   0.133   0.140   0.133   0.134   0.141   0.141   0.141   0.137   0.131   0.137   0.145   0.145   0.139   0.134   0.134   0.134   0.146   0.142
    52.15    0.128   0.130   0.138   0.139   0.140   0.134   0.129   0.128   0.131   0.135   0.129   0.131   0.134   0.136   0.137   0.134   0.131   0.138   0.140   0.138   0.142   0.145   0.145   0.136   0.136   0.127   0.134   0.142   0.144   0.141   0.136   0.133   0.140   0.138   0.144
    47.50    0.130   0.136   0.137   0.140   0.138   0.131   0.129   0.132   0.133   0.135   0.131   0.135   0.140   0.137   0.143   0.131   0.135   0.136   0.145   0.148   0.145   0.143   0.143   0.138   0.137   0.130   0.131   0.138   0.140   0.133   0.134   0.131   0.135   0.143   0.144
    42.85    0.135   0.137   0.136   0.143   0.146   0.136   0.134   0.135   0.133   0.136   0.136   0.133   0.136   0.132   0.137   0.134   0.137   0.137   0.138   0.144   0.139   0.142   0.138   0.138   0.132   0.131   0.132   0.138   0.134   0.135   0.134   0.135   0.135   0.143   0.142
    38.20    0.137   0.136   0.147   0.148   0.154   0.146   0.140   0.134   0.132   0.137   0.139   0.135   0.133   0.135   0.136   0.140   0.137   0.132   0.136   0.144   0.145   0.139   0.143   0.140   0.133   0.129   0.133   0.136   0.135   0.132   0.133   0.134   0.134   0.137   0.135
    33.55    0.133   0.133   0.142   0.142   0.152   0.147   0.140   0.134   0.132   0.137   0.135   0.140   0.138   0.135   0.132   0.136   0.134   0.132   0.138   0.146   0.143   0.138   0.146   0.136   0.138   0.132   0.132   0.135   0.139   0.137   0.137   0.136   0.141   0.135   0.135
    28.90    0.132   0.136   0.137   0.144   0.145   0.142   0.143   0.136   0.140   0.138   0.138   0.138   0.138   0.133   0.131   0.135   0.135   0.137   0.136   0.143   0.144   0.146   0.147   0.143   0.137   0.135   0.137   0.134   0.132   0.139   0.138   0.137   0.135   0.136   0.134
    24.25    0.130   0.132   0.140   0.147   0.142   0.138   0.136   0.133   0.144   0.141   0.141   0.142   0.141   0.134   0.134   0.136   0.134   0.130   0.137   0.139   0.140   0.135   0.144   0.145   0.142   0.139   0.134   0.134   0.134   0.135   0.139   0.138   0.134   0.130   0.135
    19.60    0.139   0.143   0.145   0.147   0.143   0.143   0.141   0.139   0.148   0.143   0.141   0.139   0.141   0.139   0.141   0.141   0.130   0.129   0.131   0.137   0.133   0.137   0.137   0.150   0.142   0.137   0.138   0.134   0.132   0.138   0.135   0.136   0.138   0.130   0.134
    14.95    0.134   0.143   0.152   0.146   0.145   0.145   0.137   0.141   0.148   0.143   0.146   0.136   0.143   0.145   0.141   0.137   0.137   0.131   0.135   0.134   0.143   0.140   0.141   0.142   0.138   0.142   0.141   0.139   0.133   0.137   0.136   0.136   0.139   0.135   0.134
    10.30    0.134   0.131   0.144   0.145   0.145   0.149   0.143   0.134   0.144   0.144   0.143   0.144   0.148   0.145   0.142   0.133   0.135   0.140   0.135   0.132   0.137   0.141   0.138   0.142   0.137   0.137   0.133   0.132   0.127   0.136   0.135   0.137   0.130   0.138   0.143
     5.65    0.136   0.136   0.141   0.138   0.140   0.143   0.143   0.140   0.141   0.140   0.141   0.144   0.145   0.141   0.138   0.137   0.142   0.142   0.135   0.134   0.134   0.134   0.140   0.140   0.144   0.141   0.132   0.131   0.128   0.127   0.126   0.131   0.133   0.139   0.140
     1.00    0.139   0.135   0.135   0.137   0.143   0.141   0.137   0.147   0.137   0.138   0.137   0.144   0.145   0.138   0.135   0.140   0.137   0.138   0.135   0.138   0.131   0.129   0.137   0.140   0.139   0.143   0.138   0.134   0.131   0.131   0.130   0.131   0.136   0.140   0.139

   Mean standard deviation across all grid points:
      u component:    0.329 m/s
      v component:    0.228 m/s
      w component:    0.140 m/s


U-component (X) statistics from the interpolated hub point:

   Mean =   9.9913 m/s
   TI   =   3.0287 %


Processing complete.  6291 CPU seconds used.
