
This summary file was generated by TurbSim (from OpenFAST-v3.5.3) on 20-Apr-2025 at 09:30:30.


Runtime Options:

 376932526  Random seed #1
    RANLUX  Type of random number generator
         F  Output binary HH turbulence parameters?
         F  Output formatted turbulence parameters?
         F  Output AeroDyn HH files?
         T  Output AeroDyn FF files?
         F  Output BLADED FF files?
         F  Output tower data?
         F  Output HAWC FF files?
         F  Output formatted FF files?
         T  Output coherent turbulence time step file?
 0 -  NONE  IEC turbulence models scaled to exact specified standard deviation


Turbine/Model Specifications:

        37  Vertical grid-point matrix dimension
        35  Horizontal grid-point matrix dimension
     0.250  Time step [seconds]
   900.000  Analysis time [seconds]
   900.000  Usable output time [seconds]
    89.350  Hub height [m]
   167.400  Grid height [m]
   158.100  Grid width [m]
     0.000  Vertical flow angle [degrees]
     0.000  Horizontal flow angle [degrees]


Meteorological Boundary Conditions:

    TIMESR  User-input time series spectral model
       N/A  IEC standard
       N/A  IEC turbulence characteristic
       N/A  IEC turbulence type
       N/A  IEC Extreme Turbulence Model (ETM) "c" parameter [m/s]
       PL   Wind profile type
    90.000  Reference height [m]
    10.000  Reference wind speed [m/s]
       N/A  Jet height [m]
     0.120  Power law exponent
     0.030  Surface roughness length [m]


Non-IEC Meteorological Boundary Conditions:

    45.000  Site latitude [degrees]
     0.050  Gradient Richardson number
     0.480  Friction or shear velocity [m/s]
       N/A  Mixing layer depth [m]
       N/A  Mean hub u'w' Reynolds stress
       N/A  Mean hub u'v' Reynolds stress
       N/A  Mean hub v'w' Reynolds stress


Spatial Coherence Models:

       IEC  u-component coherence model
       IEC  v-component coherence model
       IEC  w-component coherence model
(   12.000, 0.353E-03)  u-component coherence parameters
(   12.000, 0.353E-03)  v-component coherence parameters
(   12.000, 0.353E-03)  w-component coherence parameters
       N/A  Coherence exponent


Coherent Turbulence Scaling Parameters:

.\EventData
            Name of the path containing the coherent turbulence data files
       les  Type of coherent turbulence data files
     1.000  Disturbance scale (ratio of wave height to rotor diameter)
     0.500  Fractional location of tower centerline from right
     0.500  Fractional location of hub height from the bottom of the dataset
    30.000  Minimum start time for coherent structures [seconds]


Profiles from User-Defined Time-Series Input:

  Height   Wind Speed   Horizontal Angle   Vertical Angle
   (m)        (m/s)          (deg)              (deg)    
  ------   ----------   ----------------   --------------
   94.00      10.00          -0.63               -0.00


You have requested that the following file(s) be generated:

   /kfs3/scratch/agupta/Projects/RL_Incubator/FinalRuns_Veer/Seed4/./FFSim_Seed4/Cond00_v10.0_PL0.12_TI6.0/Case2_wdirp04/Seed_6/TurbSim/HighT16.bts (AeroDyn/TurbSim full-field wind file)


Turbulence Simulation Scaling Parameter Summary:

   Turbulence model used                            =  User-input time series
   Gradient Richardson number                       =    0.050
   Monin-Obukhov (M-O) z/L parameter                =    0.067
   Monin-Obukhov (M-O) length scale                 = 1340.250 m
   Mean wind speed at hub height                    =    9.991 m/s

   Wind profile type                                =  Power law
   Power law exponent                               =    0.120
   Mean shear across rotor disk                     =    0.019 (m/s)/m
   Assumed rotor diameter                           =  158.100 m
   Surface roughness length                         =    0.030 m

   Nyquist frequency of turbulent wind field        =    2.000 Hz

   Number of time steps in the FFT                  =     3600
   Number of time steps output                      =     3600
   Number of points simulated                       =     1296


Mean Flow Angles:

   Vertical   =   0.0 degrees
   Horizontal =   0.0 degrees

Mean Wind Speed Profile:

   Height    Wind Speed   Horizontal Angle  Vertical Angle  U-comp (X)   V-comp (Y)   W-comp (Z)
     (m)        (m/s)         (degrees)       (degrees)       (m/s)        (m/s)        (m/s)   
   ------    ----------   ----------------  --------------  ----------   ----------   ----------
    168.4       10.78            0.00            0.00         10.78         0.00         0.00
    163.7       10.74            0.00            0.00         10.74         0.00         0.00
    159.1       10.71            0.00            0.00         10.71         0.00         0.00
    154.4       10.67            0.00            0.00         10.67         0.00         0.00
    149.8       10.63            0.00            0.00         10.63         0.00         0.00
    145.1       10.59            0.00            0.00         10.59         0.00         0.00
    140.5       10.55            0.00            0.00         10.55         0.00         0.00
    135.8       10.51            0.00            0.00         10.51         0.00         0.00
    131.2       10.46            0.00            0.00         10.46         0.00         0.00
    126.5       10.42            0.00            0.00         10.42         0.00         0.00
    121.9       10.37            0.00            0.00         10.37         0.00         0.00
    117.2       10.32            0.00            0.00         10.32         0.00         0.00
    112.6       10.27            0.00            0.00         10.27         0.00         0.00
    107.9       10.22            0.00            0.00         10.22         0.00         0.00
    103.3       10.17            0.00            0.00         10.17         0.00         0.00
     98.6       10.11            0.00            0.00         10.11         0.00         0.00
     94.0       10.05            0.00            0.00         10.05         0.00         0.00
     89.3        9.99            0.00            0.00          9.99         0.00         0.00
     84.7        9.93            0.00            0.00          9.93         0.00         0.00
     80.0        9.86            0.00            0.00          9.86         0.00         0.00
     75.4        9.79            0.00            0.00          9.79         0.00         0.00
     70.7        9.72            0.00            0.00          9.72         0.00         0.00
     66.1        9.64            0.00            0.00          9.64         0.00         0.00
     61.4        9.55            0.00            0.00          9.55         0.00         0.00
     56.8        9.46            0.00            0.00          9.46         0.00         0.00
     52.1        9.37            0.00            0.00          9.37         0.00         0.00
     47.5        9.26            0.00            0.00          9.26         0.00         0.00
     42.8        9.15            0.00            0.00          9.15         0.00         0.00
     38.2        9.02            0.00            0.00          9.02         0.00         0.00
     33.5        8.88            0.00            0.00          8.88         0.00         0.00
     28.9        8.73            0.00            0.00          8.73         0.00         0.00
     24.2        8.54            0.00            0.00          8.54         0.00         0.00
     19.6        8.33            0.00            0.00          8.33         0.00         0.00
     14.9        8.06            0.00            0.00          8.06         0.00         0.00
     10.3        7.71            0.00            0.00          7.71         0.00         0.00
      5.6        7.17            0.00            0.00          7.17         0.00         0.00
      1.0        5.83            0.00            0.00          5.83         0.00         0.00


Harvested Random Seeds after Generation of the Random Numbers:

     65026800 K 1
            0 K 2


Hub-Height Simulated Turbulence Statistical Summary:

   Type of Wind        Min (m/s)   Mean (m/s)    Max (m/s)  Sigma (m/s)       TI (%)
   ----------------    ---------   ----------    ---------  -----------       ------
   Longitudinal (u)         8.35         9.99        11.56        0.510        5.105
   Lateral (v)             -1.41        -0.00         1.55        0.442        4.422
   Vertical (w)            -0.90        -0.00         0.93        0.280        2.805
   U component              8.35         9.99        11.56        0.510        5.105
   V component             -1.41        -0.00         1.55        0.442        4.422
   W component             -0.90        -0.00         0.93        0.280        2.805
   Horizontal (U&V)         8.36        10.00        11.57        0.510        5.095
   Total                    8.36        10.01        11.57        0.509        5.091

                       Min Reynolds     Mean Reynolds    Max Reynolds    Correlation
   Product             Stress (m/s)^2   Stress (m/s)^2   Stress (m/s)^2  Coefficient
   ----------------    --------------   --------------   --------------  -----------
   u'w'                     -1.116            -0.012             1.067        -0.087
   u'v'                     -1.395            -0.015             1.395        -0.065
   v'w'                     -0.529             0.017             0.797         0.141


   Friction Velocity (Ustar)  =      0.111 m/s
   Maximum Instantaneous TKE  =      1.603 (m/s)^2
   Maximum Instantaneous CTKE =      0.735 (m/s)^2


Grid Point Variance Summary:

   Y-coord  -79.05  -74.40  -69.75  -65.10  -60.45  -55.80  -51.15  -46.50  -41.85  -37.20  -32.55  -27.90  -23.25  -18.60  -13.95   -9.30   -4.65    0.00    4.65    9.30   13.95   18.60   23.25   27.90   32.55   37.20   41.85   46.50   51.15   55.80   60.45   65.10   69.75   74.40   79.05

   Height   Standard deviation at grid points for the u component:
   168.40    0.521   0.549   0.566   0.528   0.504   0.494   0.540   0.567   0.579   0.560   0.511   0.502   0.527   0.482   0.500   0.527   0.543   0.531   0.515   0.538   0.535   0.541   0.553   0.538   0.541   0.522   0.529   0.565   0.541   0.526   0.498   0.468   0.462   0.436   0.426
   163.75    0.525   0.517   0.541   0.556   0.541   0.545   0.530   0.530   0.551   0.539   0.512   0.541   0.557   0.501   0.469   0.519   0.511   0.513   0.515   0.538   0.535   0.547   0.583   0.536   0.550   0.549   0.545   0.539   0.542   0.499   0.516   0.492   0.461   0.426   0.441
   159.10    0.568   0.503   0.526   0.562   0.568   0.540   0.534   0.540   0.537   0.512   0.515   0.483   0.510   0.513   0.493   0.509   0.556   0.553   0.579   0.579   0.562   0.558   0.601   0.569   0.596   0.551   0.572   0.595   0.544   0.524   0.498   0.520   0.481   0.475   0.471
   154.45    0.522   0.498   0.508   0.536   0.528   0.541   0.528   0.505   0.476   0.492   0.471   0.475   0.496   0.544   0.494   0.522   0.551   0.571   0.564   0.560   0.600   0.605   0.619   0.577   0.595   0.568   0.563   0.598   0.567   0.577   0.554   0.511   0.511   0.523   0.502
   149.80    0.501   0.478   0.479   0.497   0.506   0.517   0.517   0.481   0.511   0.452   0.449   0.461   0.499   0.504   0.480   0.515   0.543   0.558   0.548   0.557   0.567   0.592   0.563   0.581   0.577   0.561   0.561   0.570   0.591   0.580   0.524   0.523   0.530   0.502   0.478
   145.15    0.482   0.452   0.464   0.474   0.498   0.518   0.482   0.481   0.487   0.464   0.449   0.468   0.507   0.497   0.502   0.525   0.506   0.531   0.564   0.534   0.556   0.573   0.573   0.586   0.604   0.547   0.543   0.574   0.571   0.562   0.535   0.489   0.515   0.492   0.495
   140.50    0.456   0.444   0.454   0.459   0.528   0.516   0.507   0.519   0.486   0.467   0.509   0.465   0.484   0.503   0.521   0.519   0.506   0.531   0.579   0.566   0.588   0.600   0.558   0.574   0.575   0.582   0.565   0.561   0.542   0.567   0.553   0.532   0.516   0.493   0.496
   135.85    0.480   0.458   0.462   0.478   0.501   0.528   0.533   0.547   0.520   0.512   0.525   0.476   0.479   0.504   0.486   0.491   0.520   0.529   0.579   0.586   0.603   0.589   0.569   0.559   0.584   0.597   0.582   0.561   0.561   0.566   0.559   0.563   0.551   0.489   0.473
   131.20    0.480   0.448   0.441   0.461   0.514   0.510   0.534   0.516   0.540   0.514   0.488   0.491   0.485   0.486   0.494   0.481   0.528   0.535   0.541   0.571   0.591   0.568   0.606   0.600   0.590   0.600   0.579   0.601   0.538   0.540   0.551   0.551   0.533   0.512   0.467
   126.55    0.499   0.448   0.462   0.491   0.518   0.555   0.563   0.528   0.531   0.545   0.531   0.474   0.476   0.469   0.475   0.486   0.496   0.507   0.521   0.559   0.594   0.601   0.596   0.601   0.561   0.578   0.576   0.572   0.583   0.520   0.513   0.512   0.525   0.512   0.490
   121.90    0.529   0.519   0.503   0.522   0.535   0.566   0.574   0.562   0.580   0.560   0.530   0.525   0.496   0.486   0.475   0.453   0.433   0.472   0.519   0.553   0.559   0.540   0.571   0.564   0.585   0.556   0.539   0.564   0.558   0.527   0.555   0.545   0.508   0.511   0.501
   117.25    0.518   0.524   0.521   0.536   0.565   0.604   0.603   0.606   0.594   0.551   0.541   0.538   0.493   0.519   0.500   0.450   0.453   0.470   0.543   0.571   0.514   0.537   0.564   0.558   0.560   0.565   0.527   0.540   0.567   0.590   0.543   0.555   0.545   0.566   0.553
   112.60    0.526   0.490   0.506   0.525   0.577   0.592   0.604   0.562   0.574   0.557   0.554   0.548   0.501   0.516   0.504   0.503   0.478   0.501   0.546   0.574   0.540   0.576   0.602   0.578   0.558   0.536   0.521   0.593   0.585   0.612   0.598   0.544   0.541   0.557   0.556
   107.95    0.511   0.484   0.513   0.560   0.560   0.571   0.586   0.581   0.527   0.572   0.554   0.560   0.535   0.494   0.502   0.509   0.500   0.507   0.547   0.561   0.589   0.577   0.579   0.548   0.563   0.553   0.569   0.587   0.609   0.605   0.572   0.565   0.532   0.518   0.503
   103.30    0.512   0.518   0.520   0.544   0.560   0.563   0.529   0.518   0.541   0.538   0.566   0.540   0.551   0.493   0.499   0.524   0.540   0.542   0.558   0.583   0.561   0.569   0.567   0.564   0.557   0.605   0.571   0.590   0.631   0.582   0.561   0.565   0.538   0.492   0.476
    98.65    0.512   0.507   0.525   0.530   0.577   0.550   0.530   0.521   0.526   0.495   0.542   0.525   0.546   0.533   0.528   0.534   0.509   0.532   0.546   0.573   0.575   0.598   0.583   0.562   0.566   0.609   0.642   0.655   0.587   0.599   0.582   0.529   0.502   0.484   0.460
    94.00    0.509   0.525   0.525   0.526   0.575   0.547   0.517   0.498   0.527   0.544   0.499   0.489   0.527   0.560   0.496   0.514   0.510   0.528   0.523   0.562   0.549   0.562   0.584   0.546   0.558   0.603   0.643   0.649   0.583   0.580   0.521   0.491   0.490   0.479   0.487
    89.35    0.473   0.502   0.541   0.539   0.553   0.526   0.503   0.494   0.532   0.525   0.517   0.500   0.533   0.532   0.531   0.467   0.514   0.510   0.521   0.538   0.548   0.535   0.532   0.568   0.569   0.634   0.628   0.615   0.629   0.595   0.538   0.521   0.537   0.544   0.494
    84.70    0.510   0.510   0.521   0.539   0.515   0.512   0.518   0.505   0.540   0.492   0.519   0.536   0.526   0.528   0.523   0.501   0.516   0.514   0.531   0.555   0.524   0.521   0.558   0.551   0.573   0.590   0.631   0.628   0.591   0.570   0.539   0.554   0.545   0.544   0.491
    80.05    0.511   0.533   0.544   0.544   0.519   0.521   0.502   0.502   0.519   0.540   0.542   0.567   0.562   0.563   0.579   0.572   0.559   0.535   0.528   0.518   0.537   0.532   0.556   0.575   0.554   0.585   0.590   0.600   0.578   0.578   0.569   0.546   0.498   0.481   0.467
    75.40    0.534   0.532   0.556   0.512   0.494   0.505   0.510   0.516   0.536   0.544   0.531   0.524   0.566   0.575   0.598   0.576   0.579   0.529   0.527   0.519   0.511   0.551   0.557   0.574   0.546   0.539   0.545   0.517   0.555   0.566   0.549   0.522   0.514   0.517   0.492
    70.75    0.567   0.554   0.540   0.471   0.471   0.494   0.542   0.524   0.518   0.510   0.537   0.562   0.577   0.586   0.569   0.554   0.570   0.547   0.518   0.534   0.539   0.558   0.549   0.565   0.541   0.544   0.564   0.537   0.533   0.568   0.533   0.521   0.520   0.505   0.506
    66.10    0.559   0.532   0.528   0.474   0.475   0.491   0.507   0.493   0.474   0.522   0.574   0.568   0.558   0.562   0.551   0.537   0.544   0.538   0.557   0.527   0.543   0.538   0.539   0.538   0.546   0.504   0.548   0.546   0.565   0.587   0.543   0.534   0.524   0.551   0.536
    61.45    0.550   0.539   0.507   0.510   0.494   0.468   0.468   0.524   0.515   0.508   0.551   0.590   0.587   0.591   0.585   0.562   0.545   0.569   0.568   0.581   0.574   0.572   0.539   0.539   0.508   0.493   0.516   0.564   0.568   0.509   0.564   0.560   0.567   0.603   0.552
    56.80    0.548   0.558   0.518   0.504   0.461   0.421   0.460   0.478   0.515   0.528   0.547   0.575   0.586   0.591   0.554   0.569   0.556   0.573   0.573   0.578   0.533   0.561   0.568   0.545   0.533   0.500   0.526   0.551   0.567   0.537   0.526   0.547   0.547   0.546   0.544
    52.15    0.512   0.527   0.541   0.498   0.502   0.467   0.472   0.479   0.481   0.510   0.554   0.580   0.587   0.544   0.558   0.529   0.538   0.592   0.583   0.565   0.509   0.550   0.570   0.575   0.526   0.505   0.522   0.540   0.544   0.516   0.534   0.522   0.508   0.545   0.557
    47.50    0.532   0.516   0.511   0.522   0.535   0.492   0.509   0.479   0.473   0.522   0.524   0.550   0.579   0.548   0.536   0.542   0.540   0.592   0.609   0.561   0.520   0.560   0.543   0.515   0.520   0.509   0.537   0.553   0.518   0.522   0.573   0.521   0.533   0.521   0.518
    42.85    0.511   0.549   0.546   0.514   0.550   0.516   0.526   0.518   0.484   0.495   0.503   0.536   0.546   0.559   0.543   0.590   0.562   0.611   0.629   0.607   0.593   0.524   0.528   0.507   0.513   0.541   0.560   0.583   0.555   0.525   0.579   0.557   0.541   0.505   0.479
    38.20    0.519   0.535   0.545   0.516   0.523   0.498   0.509   0.497   0.488   0.507   0.516   0.515   0.519   0.564   0.552   0.553   0.596   0.571   0.594   0.591   0.564   0.562   0.516   0.514   0.500   0.560   0.564   0.573   0.569   0.564   0.573   0.548   0.545   0.538   0.520
    33.55    0.493   0.508   0.531   0.536   0.534   0.513   0.521   0.508   0.487   0.539   0.526   0.527   0.508   0.545   0.553   0.545   0.555   0.569   0.584   0.571   0.538   0.541   0.518   0.485   0.520   0.535   0.570   0.557   0.572   0.544   0.546   0.549   0.523   0.518   0.474
    28.90    0.512   0.515   0.511   0.527   0.552   0.523   0.513   0.496   0.503   0.538   0.567   0.578   0.538   0.533   0.552   0.557   0.537   0.546   0.545   0.523   0.526   0.521   0.508   0.491   0.480   0.503   0.515   0.548   0.544   0.554   0.530   0.549   0.554   0.515   0.470
    24.25    0.505   0.517   0.506   0.535   0.513   0.538   0.527   0.541   0.542   0.557   0.527   0.553   0.546   0.559   0.560   0.548   0.541   0.529   0.520   0.525   0.505   0.529   0.470   0.481   0.482   0.510   0.512   0.523   0.518   0.546   0.527   0.551   0.557   0.559   0.516
    19.60    0.472   0.494   0.533   0.544   0.547   0.535   0.553   0.556   0.557   0.584   0.557   0.581   0.554   0.567   0.555   0.517   0.528   0.566   0.520   0.531   0.514   0.499   0.499   0.474   0.494   0.500   0.528   0.546   0.533   0.560   0.549   0.542   0.555   0.594   0.565
    14.95    0.486   0.470   0.521   0.517   0.528   0.525   0.587   0.565   0.555   0.546   0.560   0.550   0.577   0.553   0.521   0.524   0.546   0.554   0.538   0.517   0.508   0.505   0.497   0.495   0.506   0.497   0.553   0.523   0.530   0.543   0.539   0.497   0.528   0.538   0.549
    10.30    0.449   0.462   0.516   0.532   0.519   0.523   0.561   0.577   0.555   0.531   0.527   0.547   0.573   0.550   0.555   0.552   0.558   0.553   0.561   0.517   0.498   0.492   0.496   0.519   0.535   0.512   0.532   0.544   0.538   0.509   0.496   0.492   0.501   0.491   0.498
     5.65    0.469   0.476   0.508   0.507   0.503   0.524   0.539   0.585   0.595   0.545   0.562   0.578   0.574   0.583   0.545   0.564   0.535   0.541   0.517   0.506   0.532   0.501   0.477   0.484   0.520   0.530   0.526   0.519   0.496   0.516   0.506   0.483   0.474   0.508   0.486
     1.00    0.483   0.483   0.489   0.517   0.524   0.544   0.540   0.591   0.577   0.583   0.566   0.555   0.560   0.525   0.547   0.536   0.545   0.547   0.541   0.507   0.503   0.522   0.494   0.500   0.499   0.514   0.493   0.503   0.551   0.532   0.497   0.460   0.463   0.465   0.485

   Height   Standard deviation at grid points for the v component:
   168.40    0.434   0.438   0.443   0.450   0.469   0.494   0.507   0.511   0.471   0.450   0.442   0.417   0.418   0.406   0.417   0.417   0.419   0.420   0.413   0.416   0.413   0.395   0.399   0.408   0.408   0.388   0.386   0.384   0.379   0.400   0.399   0.416   0.435   0.451   0.450
   163.75    0.436   0.446   0.423   0.447   0.457   0.453   0.485   0.485   0.472   0.455   0.440   0.439   0.414   0.422   0.434   0.414   0.414   0.419   0.415   0.406   0.419   0.394   0.401   0.392   0.397   0.401   0.382   0.391   0.386   0.393   0.402   0.430   0.445   0.423   0.436
   159.10    0.434   0.446   0.425   0.422   0.426   0.432   0.445   0.464   0.455   0.455   0.443   0.449   0.445   0.428   0.419   0.415   0.413   0.406   0.400   0.408   0.406   0.400   0.394   0.402   0.416   0.400   0.381   0.386   0.397   0.404   0.406   0.413   0.438   0.423   0.427
   154.45    0.415   0.418   0.421   0.437   0.440   0.421   0.434   0.451   0.451   0.453   0.435   0.424   0.440   0.455   0.420   0.419   0.416   0.415   0.397   0.394   0.407   0.410   0.412   0.405   0.422   0.431   0.419   0.430   0.409   0.432   0.420   0.401   0.420   0.412   0.425
   149.80    0.407   0.410   0.432   0.439   0.424   0.441   0.433   0.463   0.445   0.445   0.442   0.427   0.434   0.444   0.424   0.434   0.417   0.400   0.402   0.412   0.416   0.411   0.397   0.430   0.434   0.442   0.438   0.440   0.443   0.436   0.418   0.411   0.421   0.411   0.400
   145.15    0.422   0.425   0.408   0.420   0.417   0.427   0.447   0.461   0.458   0.454   0.460   0.450   0.448   0.431   0.419   0.454   0.404   0.399   0.391   0.424   0.416   0.411   0.419   0.427   0.422   0.445   0.440   0.426   0.435   0.422   0.420   0.425   0.433   0.412   0.418
   140.50    0.426   0.428   0.445   0.428   0.419   0.422   0.450   0.455   0.473   0.452   0.450   0.443   0.449   0.427   0.445   0.432   0.431   0.411   0.410   0.423   0.436   0.418   0.404   0.428   0.438   0.442   0.441   0.441   0.430   0.423   0.434   0.412   0.431   0.447   0.414
   135.85    0.433   0.457   0.429   0.431   0.426   0.433   0.427   0.463   0.462   0.469   0.459   0.445   0.441   0.431   0.429   0.450   0.442   0.430   0.417   0.433   0.411   0.435   0.431   0.431   0.434   0.439   0.438   0.420   0.433   0.446   0.435   0.421   0.442   0.451   0.462
   131.20    0.411   0.405   0.440   0.428   0.431   0.438   0.443   0.452   0.457   0.458   0.434   0.448   0.449   0.441   0.441   0.437   0.426   0.431   0.417   0.425   0.421   0.428   0.429   0.438   0.433   0.439   0.444   0.434   0.462   0.454   0.454   0.435   0.425   0.430   0.440
   126.55    0.388   0.412   0.423   0.419   0.436   0.434   0.434   0.433   0.430   0.446   0.446   0.435   0.428   0.454   0.426   0.428   0.428   0.410   0.408   0.406   0.407   0.409   0.420   0.436   0.444   0.442   0.463   0.472   0.448   0.448   0.447   0.439   0.435   0.423   0.395
   121.90    0.401   0.408   0.424   0.436   0.453   0.437   0.437   0.414   0.418   0.424   0.431   0.426   0.415   0.431   0.436   0.414   0.404   0.424   0.427   0.417   0.415   0.415   0.423   0.425   0.432   0.469   0.470   0.464   0.438   0.421   0.439   0.434   0.422   0.397   0.373
   117.25    0.429   0.415   0.435   0.429   0.451   0.433   0.418   0.408   0.392   0.409   0.404   0.436   0.431   0.435   0.426   0.405   0.428   0.423   0.409   0.412   0.420   0.418   0.425   0.430   0.444   0.446   0.460   0.439   0.427   0.412   0.421   0.421   0.408   0.385   0.395
   112.60    0.424   0.421   0.431   0.445   0.432   0.437   0.419   0.411   0.392   0.385   0.414   0.409   0.429   0.448   0.432   0.424   0.431   0.423   0.418   0.404   0.413   0.415   0.412   0.405   0.408   0.423   0.459   0.419   0.419   0.401   0.400   0.407   0.409   0.407   0.393
   107.95    0.448   0.424   0.430   0.436   0.427   0.441   0.444   0.433   0.412   0.412   0.407   0.423   0.440   0.416   0.422   0.446   0.433   0.415   0.399   0.408   0.425   0.419   0.412   0.408   0.417   0.440   0.457   0.446   0.430   0.430   0.422   0.401   0.399   0.407   0.394
   103.30    0.429   0.436   0.428   0.438   0.423   0.426   0.403   0.427   0.424   0.426   0.419   0.426   0.427   0.430   0.443   0.419   0.428   0.422   0.414   0.419   0.420   0.429   0.412   0.414   0.419   0.444   0.460   0.450   0.445   0.421   0.418   0.424   0.401   0.391   0.409
    98.65    0.437   0.427   0.424   0.439   0.415   0.430   0.416   0.415   0.406   0.415   0.407   0.429   0.429   0.431   0.432   0.418   0.413   0.433   0.436   0.441   0.438   0.440   0.399   0.396   0.406   0.425   0.435   0.439   0.436   0.423   0.430   0.434   0.412   0.385   0.407
    94.00    0.418   0.427   0.420   0.417   0.418   0.421   0.417   0.408   0.406   0.409   0.412   0.434   0.435   0.425   0.448   0.452   0.434   0.431   0.454   0.436   0.454   0.444   0.414   0.422   0.407   0.417   0.418   0.420   0.411   0.436   0.429   0.436   0.431   0.404   0.413
    89.35    0.429   0.409   0.414   0.416   0.418   0.426   0.404   0.408   0.406   0.395   0.399   0.416   0.427   0.448   0.467   0.469   0.461   0.442   0.446   0.470   0.455   0.449   0.451   0.452   0.416   0.421   0.424   0.418   0.397   0.423   0.439   0.425   0.420   0.411   0.399
    84.70    0.425   0.397   0.426   0.426   0.410   0.421   0.423   0.429   0.421   0.413   0.412   0.405   0.432   0.455   0.477   0.464   0.465   0.466   0.470   0.458   0.439   0.434   0.457   0.447   0.412   0.408   0.402   0.401   0.397   0.405   0.408   0.408   0.407   0.416   0.407
    80.05    0.430   0.420   0.428   0.433   0.410   0.410   0.427   0.447   0.441   0.428   0.427   0.419   0.424   0.439   0.467   0.485   0.480   0.467   0.458   0.461   0.442   0.460   0.456   0.436   0.409   0.403   0.400   0.383   0.396   0.419   0.412   0.408   0.405   0.432   0.411
    75.40    0.411   0.412   0.422   0.413   0.432   0.446   0.437   0.448   0.460   0.438   0.429   0.432   0.429   0.443   0.457   0.477   0.460   0.433   0.429   0.456   0.474   0.462   0.456   0.421   0.399   0.414   0.423   0.429   0.425   0.413   0.405   0.403   0.408   0.420   0.406
    70.75    0.431   0.437   0.445   0.416   0.425   0.444   0.426   0.427   0.427   0.437   0.420   0.422   0.442   0.452   0.454   0.457   0.433   0.440   0.433   0.435   0.444   0.448   0.445   0.422   0.401   0.409   0.410   0.417   0.441   0.429   0.412   0.392   0.390   0.410   0.406
    66.10    0.446   0.443   0.424   0.424   0.418   0.416   0.427   0.434   0.425   0.414   0.427   0.452   0.436   0.457   0.455   0.463   0.422   0.427   0.413   0.423   0.417   0.418   0.416   0.415   0.390   0.392   0.396   0.419   0.424   0.435   0.420   0.404   0.411   0.406   0.422
    61.45    0.433   0.419   0.424   0.418   0.413   0.418   0.423   0.429   0.436   0.426   0.425   0.446   0.448   0.444   0.457   0.454   0.437   0.430   0.409   0.416   0.408   0.437   0.422   0.400   0.416   0.391   0.412   0.417   0.416   0.426   0.416   0.395   0.391   0.398   0.417
    56.80    0.425   0.404   0.416   0.402   0.401   0.408   0.399   0.405   0.398   0.429   0.453   0.442   0.447   0.479   0.465   0.443   0.434   0.446   0.429   0.405   0.422   0.428   0.444   0.431   0.408   0.413   0.410   0.410   0.429   0.425   0.403   0.401   0.398   0.404   0.420
    52.15    0.411   0.400   0.398   0.407   0.407   0.414   0.400   0.398   0.422   0.410   0.453   0.461   0.460   0.462   0.478   0.455   0.439   0.451   0.449   0.442   0.445   0.447   0.450   0.429   0.427   0.416   0.413   0.439   0.440   0.437   0.434   0.403   0.407   0.416   0.416
    47.50    0.410   0.407   0.397   0.401   0.404   0.423   0.422   0.410   0.403   0.424   0.436   0.439   0.448   0.446   0.458   0.478   0.457   0.462   0.467   0.454   0.428   0.440   0.434   0.433   0.442   0.430   0.434   0.438   0.444   0.465   0.433   0.414   0.402   0.414   0.395
    42.85    0.390   0.415   0.410   0.399   0.418   0.420   0.413   0.421   0.410   0.424   0.436   0.431   0.453   0.455   0.428   0.467   0.469   0.453   0.444   0.444   0.441   0.445   0.440   0.441   0.442   0.435   0.428   0.421   0.437   0.454   0.422   0.401   0.421   0.422   0.419
    38.20    0.421   0.430   0.426   0.439   0.414   0.412   0.417   0.416   0.418   0.427   0.435   0.426   0.448   0.458   0.439   0.445   0.465   0.442   0.444   0.453   0.453   0.444   0.440   0.434   0.431   0.432   0.434   0.440   0.427   0.448   0.432   0.434   0.437   0.420   0.413
    33.55    0.429   0.439   0.449   0.458   0.448   0.422   0.408   0.412   0.422   0.414   0.408   0.426   0.427   0.429   0.433   0.424   0.432   0.437   0.449   0.444   0.441   0.427   0.434   0.443   0.443   0.440   0.427   0.437   0.437   0.449   0.442   0.450   0.440   0.441   0.423
    28.90    0.430   0.455   0.453   0.438   0.435   0.423   0.423   0.431   0.403   0.391   0.401   0.398   0.410   0.416   0.407   0.398   0.394   0.412   0.408   0.405   0.401   0.417   0.438   0.455   0.471   0.443   0.436   0.432   0.434   0.440   0.440   0.435   0.449   0.438   0.457
    24.25    0.464   0.471   0.466   0.430   0.421   0.419   0.414   0.396   0.409   0.397   0.393   0.411   0.410   0.406   0.415   0.410   0.389   0.402   0.383   0.393   0.398   0.434   0.446   0.455   0.451   0.438   0.431   0.431   0.435   0.430   0.442   0.454   0.453   0.446   0.463
    19.60    0.469   0.456   0.471   0.443   0.420   0.417   0.412   0.409   0.419   0.407   0.380   0.386   0.392   0.396   0.370   0.401   0.393   0.388   0.405   0.400   0.417   0.425   0.454   0.449   0.456   0.439   0.448   0.430   0.436   0.445   0.429   0.444   0.449   0.452   0.456
    14.95    0.472   0.466   0.456   0.448   0.419   0.415   0.423   0.399   0.404   0.402   0.385   0.365   0.366   0.377   0.395   0.397   0.398   0.390   0.394   0.418   0.420   0.427   0.433   0.428   0.457   0.460   0.459   0.464   0.430   0.432   0.434   0.447   0.444   0.461   0.469
    10.30    0.457   0.467   0.464   0.457   0.421   0.411   0.415   0.402   0.387   0.407   0.393   0.370   0.392   0.378   0.395   0.398   0.408   0.393   0.395   0.409   0.430   0.434   0.435   0.422   0.434   0.446   0.451   0.447   0.414   0.435   0.435   0.455   0.453   0.461   0.461
     5.65    0.449   0.467   0.458   0.455   0.437   0.432   0.426   0.410   0.398   0.397   0.382   0.382   0.396   0.399   0.385   0.387   0.390   0.397   0.418   0.432   0.437   0.444   0.454   0.433   0.435   0.444   0.451   0.435   0.418   0.425   0.435   0.442   0.448   0.454   0.488
     1.00    0.428   0.451   0.439   0.434   0.439   0.447   0.436   0.421   0.414   0.435   0.413   0.382   0.393   0.377   0.376   0.381   0.391   0.431   0.429   0.428   0.447   0.435   0.442   0.436   0.418   0.414   0.436   0.414   0.416   0.409   0.418   0.430   0.428   0.441   0.458

   Height   Standard deviation at grid points for the w component:
   168.40    0.285   0.287   0.286   0.290   0.290   0.283   0.290   0.282   0.291   0.278   0.288   0.271   0.267   0.283   0.282   0.278   0.289   0.288   0.281   0.287   0.284   0.289   0.278   0.278   0.275   0.272   0.269   0.263   0.272   0.279   0.272   0.263   0.273   0.268   0.280
   163.75    0.290   0.284   0.284   0.283   0.292   0.294   0.296   0.286   0.279   0.283   0.286   0.284   0.277   0.275   0.272   0.284   0.289   0.286   0.287   0.293   0.287   0.279   0.285   0.277   0.276   0.264   0.268   0.257   0.258   0.273   0.281   0.280   0.270   0.280   0.277
   159.10    0.287   0.285   0.283   0.291   0.289   0.287   0.298   0.287   0.284   0.282   0.284   0.287   0.270   0.277   0.283   0.280   0.283   0.296   0.296   0.294   0.289   0.283   0.292   0.288   0.280   0.277   0.275   0.269   0.268   0.273   0.282   0.281   0.267   0.270   0.265
   154.45    0.277   0.282   0.289   0.290   0.304   0.296   0.294   0.287   0.276   0.277   0.286   0.290   0.280   0.275   0.278   0.290   0.294   0.307   0.298   0.289   0.295   0.289   0.284   0.283   0.280   0.270   0.263   0.265   0.271   0.273   0.277   0.277   0.270   0.259   0.272
   149.80    0.278   0.285   0.293   0.292   0.295   0.311   0.299   0.293   0.299   0.289   0.286   0.277   0.282   0.284   0.292   0.294   0.290   0.294   0.294   0.277   0.288   0.284   0.278   0.277   0.275   0.268   0.260   0.261   0.263   0.272   0.274   0.268   0.256   0.263   0.263
   145.15    0.281   0.285   0.289   0.297   0.291   0.309   0.305   0.301   0.298   0.285   0.284   0.284   0.279   0.286   0.302   0.294   0.285   0.291   0.282   0.288   0.286   0.291   0.291   0.293   0.280   0.281   0.280   0.270   0.269   0.271   0.281   0.271   0.260   0.262   0.260
   140.50    0.273   0.290   0.287   0.290   0.296   0.289   0.300   0.296   0.287   0.287   0.288   0.292   0.281   0.286   0.293   0.290   0.279   0.293   0.295   0.301   0.295   0.284   0.275   0.286   0.285   0.290   0.283   0.270   0.277   0.275   0.283   0.276   0.258   0.258   0.261
   135.85    0.270   0.276   0.288   0.287   0.278   0.276   0.289   0.293   0.289   0.284   0.293   0.302   0.289   0.290   0.290   0.283   0.276   0.292   0.302   0.300   0.282   0.284   0.291   0.285   0.291   0.293   0.276   0.280   0.282   0.270   0.270   0.267   0.264   0.264   0.267
   131.20    0.276   0.287   0.292   0.280   0.294   0.294   0.289   0.298   0.291   0.295   0.294   0.295   0.294   0.297   0.295   0.290   0.282   0.287   0.300   0.296   0.291   0.288   0.296   0.288   0.289   0.281   0.280   0.278   0.271   0.268   0.271   0.260   0.268   0.271   0.276
   126.55    0.294   0.292   0.294   0.291   0.296   0.308   0.306   0.297   0.294   0.304   0.292   0.300   0.301   0.295   0.292   0.290   0.281   0.293   0.300   0.301   0.284   0.288   0.300   0.282   0.271   0.272   0.285   0.274   0.269   0.263   0.271   0.269   0.257   0.270   0.285
   121.90    0.289   0.295   0.295   0.303   0.312   0.303   0.300   0.310   0.307   0.307   0.298   0.283   0.295   0.296   0.304   0.303   0.298   0.302   0.301   0.294   0.287   0.283   0.286   0.280   0.266   0.268   0.275   0.280   0.258   0.255   0.270   0.274   0.278   0.287   0.289
   117.25    0.292   0.290   0.300   0.300   0.296   0.302   0.306   0.307   0.307   0.305   0.295   0.278   0.281   0.290   0.293   0.291   0.296   0.303   0.290   0.297   0.286   0.276   0.272   0.269   0.254   0.265   0.273   0.274   0.274   0.271   0.271   0.279   0.287   0.286   0.290
   112.60    0.297   0.289   0.302   0.307   0.303   0.307   0.305   0.305   0.307   0.285   0.285   0.286   0.292   0.281   0.286   0.288   0.286   0.282   0.292   0.280   0.273   0.266   0.268   0.266   0.261   0.267   0.274   0.271   0.267   0.274   0.267   0.284   0.288   0.286   0.284
   107.95    0.289   0.291   0.300   0.306   0.306   0.309   0.305   0.304   0.310   0.295   0.291   0.294   0.294   0.297   0.291   0.285   0.277   0.283   0.289   0.274   0.267   0.273   0.273   0.274   0.266   0.269   0.277   0.273   0.277   0.278   0.279   0.285   0.278   0.281   0.276
   103.30    0.292   0.294   0.291   0.285   0.288   0.294   0.296   0.298   0.305   0.298   0.299   0.298   0.290   0.291   0.291   0.287   0.279   0.281   0.283   0.269   0.271   0.277   0.285   0.281   0.264   0.268   0.268   0.279   0.278   0.280   0.279   0.277   0.278   0.276   0.277
    98.65    0.302   0.301   0.288   0.290   0.286   0.291   0.299   0.295   0.315   0.297   0.295   0.291   0.280   0.287   0.285   0.282   0.291   0.287   0.281   0.282   0.274   0.279   0.284   0.275   0.271   0.271   0.271   0.268   0.274   0.277   0.271   0.268   0.277   0.267   0.280
    94.00    0.299   0.292   0.280   0.282   0.289   0.287   0.299   0.305   0.305   0.306   0.301   0.276   0.281   0.281   0.278   0.277   0.287   0.273   0.273   0.279   0.281   0.281   0.284   0.285   0.270   0.261   0.264   0.270   0.268   0.285   0.280   0.271   0.269   0.275   0.274
    89.35    0.291   0.299   0.281   0.277   0.283   0.288   0.302   0.301   0.301   0.311   0.287   0.285   0.276   0.284   0.273   0.276   0.289   0.280   0.283   0.273   0.278   0.282   0.283   0.279   0.280   0.277   0.271   0.273   0.284   0.292   0.290   0.272   0.273   0.272   0.276
    84.70    0.301   0.297   0.284   0.291   0.288   0.287   0.285   0.308   0.307   0.305   0.302   0.290   0.278   0.286   0.285   0.278   0.280   0.283   0.269   0.279   0.280   0.274   0.281   0.278   0.278   0.283   0.285   0.277   0.284   0.288   0.284   0.287   0.285   0.270   0.274
    80.05    0.295   0.298   0.290   0.296   0.295   0.290   0.280   0.294   0.305   0.302   0.302   0.297   0.292   0.292   0.290   0.284   0.294   0.274   0.267   0.281   0.284   0.280   0.288   0.300   0.291   0.295   0.281   0.279   0.272   0.287   0.289   0.285   0.276   0.279   0.273
    75.40    0.296   0.307   0.308   0.294   0.291   0.287   0.279   0.279   0.289   0.290   0.300   0.291   0.296   0.283   0.289   0.279   0.278   0.276   0.265   0.282   0.286   0.291   0.290   0.291   0.292   0.280   0.280   0.280   0.293   0.283   0.287   0.292   0.278   0.267   0.277
    70.75    0.296   0.303   0.299   0.293   0.291   0.290   0.276   0.284   0.274   0.287   0.294   0.286   0.290   0.286   0.275   0.277   0.279   0.271   0.278   0.288   0.292   0.288   0.287   0.294   0.287   0.274   0.279   0.287   0.299   0.286   0.277   0.287   0.289   0.282   0.272
    66.10    0.290   0.301   0.298   0.285   0.285   0.283   0.281   0.281   0.296   0.289   0.292   0.286   0.277   0.278   0.275   0.267   0.279   0.272   0.295   0.287   0.300   0.309   0.308   0.292   0.281   0.279   0.292   0.293   0.304   0.291   0.289   0.288   0.285   0.285   0.279
    61.45    0.285   0.294   0.292   0.286   0.278   0.292   0.279   0.288   0.290   0.285   0.281   0.276   0.283   0.277   0.270   0.267   0.287   0.294   0.288   0.288   0.306   0.298   0.298   0.282   0.278   0.287   0.297   0.283   0.293   0.299   0.289   0.290   0.281   0.277   0.281
    56.80    0.300   0.304   0.302   0.283   0.281   0.275   0.280   0.279   0.283   0.274   0.277   0.277   0.296   0.280   0.267   0.271   0.291   0.299   0.299   0.287   0.293   0.298   0.283   0.288   0.284   0.281   0.283   0.281   0.283   0.297   0.291   0.287   0.286   0.285   0.283
    52.15    0.294   0.300   0.299   0.294   0.282   0.279   0.270   0.268   0.272   0.282   0.272   0.280   0.286   0.286   0.276   0.277   0.288   0.292   0.294   0.288   0.290   0.283   0.281   0.288   0.293   0.298   0.284   0.289   0.277   0.289   0.288   0.287   0.283   0.282   0.277
    47.50    0.291   0.293   0.302   0.293   0.280   0.279   0.270   0.263   0.269   0.279   0.276   0.275   0.280   0.274   0.280   0.285   0.286   0.281   0.278   0.285   0.282   0.276   0.277   0.284   0.285   0.294   0.288   0.276   0.288   0.286   0.292   0.282   0.276   0.276   0.278
    42.85    0.282   0.290   0.301   0.294   0.276   0.276   0.270   0.276   0.271   0.269   0.269   0.272   0.279   0.286   0.280   0.280   0.275   0.278   0.280   0.279   0.282   0.285   0.279   0.286   0.278   0.279   0.276   0.280   0.279   0.281   0.284   0.284   0.277   0.282   0.277
    38.20    0.291   0.280   0.298   0.287   0.278   0.275   0.265   0.268   0.279   0.275   0.275   0.273   0.285   0.288   0.293   0.281   0.275   0.282   0.282   0.277   0.285   0.285   0.285   0.288   0.281   0.286   0.275   0.272   0.275   0.274   0.279   0.270   0.278   0.282   0.279
    33.55    0.286   0.289   0.292   0.278   0.272   0.275   0.261   0.263   0.276   0.284   0.281   0.283   0.284   0.280   0.272   0.287   0.288   0.283   0.276   0.279   0.271   0.294   0.286   0.288   0.285   0.290   0.289   0.282   0.274   0.266   0.267   0.269   0.271   0.276   0.274
    28.90    0.286   0.276   0.288   0.277   0.279   0.273   0.269   0.270   0.280   0.278   0.283   0.284   0.282   0.279   0.274   0.276   0.281   0.289   0.286   0.277   0.276   0.281   0.295   0.296   0.294   0.303   0.283   0.278   0.276   0.269   0.271   0.256   0.272   0.276   0.269
    24.25    0.281   0.275   0.270   0.274   0.280   0.284   0.285   0.286   0.294   0.282   0.289   0.278   0.289   0.289   0.281   0.282   0.280   0.287   0.287   0.281   0.279   0.283   0.291   0.297   0.293   0.294   0.296   0.300   0.289   0.271   0.265   0.269   0.271   0.274   0.276
    19.60    0.267   0.268   0.259   0.276   0.281   0.281   0.286   0.289   0.283   0.280   0.282   0.284   0.283   0.277   0.265   0.276   0.282   0.298   0.287   0.279   0.283   0.301   0.297   0.301   0.297   0.309   0.297   0.300   0.302   0.282   0.280   0.274   0.272   0.284   0.278
    14.95    0.260   0.264   0.265   0.271   0.281   0.273   0.272   0.273   0.281   0.277   0.284   0.281   0.277   0.270   0.272   0.278   0.276   0.281   0.288   0.279   0.284   0.295   0.296   0.306   0.305   0.294   0.305   0.302   0.303   0.294   0.277   0.283   0.278   0.278   0.277
    10.30    0.269   0.274   0.270   0.269   0.282   0.275   0.272   0.270   0.268   0.277   0.286   0.272   0.277   0.279   0.278   0.285   0.280   0.285   0.278   0.289   0.299   0.306   0.296   0.295   0.300   0.299   0.298   0.302   0.289   0.292   0.291   0.286   0.288   0.293   0.288
     5.65    0.281   0.269   0.273   0.278   0.271   0.271   0.270   0.266   0.269   0.275   0.276   0.271   0.268   0.273   0.274   0.289   0.279   0.289   0.284   0.296   0.293   0.317   0.312   0.301   0.296   0.295   0.296   0.284   0.285   0.289   0.292   0.280   0.291   0.287   0.287
     1.00    0.281   0.279   0.273   0.277   0.273   0.271   0.275   0.277   0.276   0.284   0.279   0.281   0.267   0.266   0.281   0.298   0.291   0.291   0.290   0.296   0.305   0.311   0.308   0.310   0.300   0.304   0.282   0.295   0.285   0.278   0.283   0.278   0.287   0.297   0.297

   Mean standard deviation across all grid points:
      u component:    0.534 m/s
      v component:    0.427 m/s
      w component:    0.284 m/s


U-component (X) statistics from the interpolated hub point:

   Mean =   9.9913 m/s
   TI   =   5.1048 %


Processing complete.  5973.5 CPU seconds used.
