
This summary file was generated by TurbSim (from OpenFAST-v3.5.3) on 20-Apr-2025 at 06:22:19.


Runtime Options:

 376932526  Random seed #1
    RANLUX  Type of random number generator
         F  Output binary HH turbulence parameters?
         F  Output formatted turbulence parameters?
         F  Output AeroDyn HH files?
         T  Output AeroDyn FF files?
         F  Output BLADED FF files?
         F  Output tower data?
         F  Output HAWC FF files?
         F  Output formatted FF files?
         T  Output coherent turbulence time step file?
 0 -  NONE  IEC turbulence models scaled to exact specified standard deviation


Turbine/Model Specifications:

        37  Vertical grid-point matrix dimension
        35  Horizontal grid-point matrix dimension
     0.250  Time step [seconds]
   900.000  Analysis time [seconds]
   900.000  Usable output time [seconds]
    89.350  Hub height [m]
   167.400  Grid height [m]
   158.100  Grid width [m]
     0.000  Vertical flow angle [degrees]
     0.000  Horizontal flow angle [degrees]


Meteorological Boundary Conditions:

    TIMESR  User-input time series spectral model
       N/A  IEC standard
       N/A  IEC turbulence characteristic
       N/A  IEC turbulence type
       N/A  IEC Extreme Turbulence Model (ETM) "c" parameter [m/s]
       PL   Wind profile type
    90.000  Reference height [m]
    10.000  Reference wind speed [m/s]
       N/A  Jet height [m]
     0.120  Power law exponent
     0.030  Surface roughness length [m]


Non-IEC Meteorological Boundary Conditions:

    45.000  Site latitude [degrees]
     0.050  Gradient Richardson number
     0.480  Friction or shear velocity [m/s]
       N/A  Mixing layer depth [m]
       N/A  Mean hub u'w' Reynolds stress
       N/A  Mean hub u'v' Reynolds stress
       N/A  Mean hub v'w' Reynolds stress


Spatial Coherence Models:

       IEC  u-component coherence model
       IEC  v-component coherence model
       IEC  w-component coherence model
(   12.000, 0.353E-03)  u-component coherence parameters
(   12.000, 0.353E-03)  v-component coherence parameters
(   12.000, 0.353E-03)  w-component coherence parameters
       N/A  Coherence exponent


Coherent Turbulence Scaling Parameters:

.\EventData
            Name of the path containing the coherent turbulence data files
       les  Type of coherent turbulence data files
     1.000  Disturbance scale (ratio of wave height to rotor diameter)
     0.500  Fractional location of tower centerline from right
     0.500  Fractional location of hub height from the bottom of the dataset
    30.000  Minimum start time for coherent structures [seconds]


Profiles from User-Defined Time-Series Input:

  Height   Wind Speed   Horizontal Angle   Vertical Angle
   (m)        (m/s)          (deg)              (deg)    
  ------   ----------   ----------------   --------------
   94.00      10.00          -0.63                0.00


You have requested that the following file(s) be generated:

   /kfs3/scratch/agupta/Projects/RL_Incubator/FinalRuns_Veer/Seed4/./FFSim_Seed4/Cond00_v10.0_PL0.12_TI4.0/Case1_wdirp02/Seed_6/TurbSim/HighT11.bts (AeroDyn/TurbSim full-field wind file)


Turbulence Simulation Scaling Parameter Summary:

   Turbulence model used                            =  User-input time series
   Gradient Richardson number                       =    0.050
   Monin-Obukhov (M-O) z/L parameter                =    0.067
   Monin-Obukhov (M-O) length scale                 = 1340.250 m
   Mean wind speed at hub height                    =    9.991 m/s

   Wind profile type                                =  Power law
   Power law exponent                               =    0.120
   Mean shear across rotor disk                     =    0.019 (m/s)/m
   Assumed rotor diameter                           =  158.100 m
   Surface roughness length                         =    0.030 m

   Nyquist frequency of turbulent wind field        =    2.000 Hz

   Number of time steps in the FFT                  =     3600
   Number of time steps output                      =     3600
   Number of points simulated                       =     1296


Mean Flow Angles:

   Vertical   =   0.0 degrees
   Horizontal =   0.0 degrees

Mean Wind Speed Profile:

   Height    Wind Speed   Horizontal Angle  Vertical Angle  U-comp (X)   V-comp (Y)   W-comp (Z)
     (m)        (m/s)         (degrees)       (degrees)       (m/s)        (m/s)        (m/s)   
   ------    ----------   ----------------  --------------  ----------   ----------   ----------
    168.4       10.78            0.00            0.00         10.78         0.00         0.00
    163.7       10.74            0.00            0.00         10.74         0.00         0.00
    159.1       10.71            0.00            0.00         10.71         0.00         0.00
    154.4       10.67            0.00            0.00         10.67         0.00         0.00
    149.8       10.63            0.00            0.00         10.63         0.00         0.00
    145.1       10.59            0.00            0.00         10.59         0.00         0.00
    140.5       10.55            0.00            0.00         10.55         0.00         0.00
    135.8       10.51            0.00            0.00         10.51         0.00         0.00
    131.2       10.46            0.00            0.00         10.46         0.00         0.00
    126.5       10.42            0.00            0.00         10.42         0.00         0.00
    121.9       10.37            0.00            0.00         10.37         0.00         0.00
    117.2       10.32            0.00            0.00         10.32         0.00         0.00
    112.6       10.27            0.00            0.00         10.27         0.00         0.00
    107.9       10.22            0.00            0.00         10.22         0.00         0.00
    103.3       10.17            0.00            0.00         10.17         0.00         0.00
     98.6       10.11            0.00            0.00         10.11         0.00         0.00
     94.0       10.05            0.00            0.00         10.05         0.00         0.00
     89.3        9.99            0.00            0.00          9.99         0.00         0.00
     84.7        9.93            0.00            0.00          9.93         0.00         0.00
     80.0        9.86            0.00            0.00          9.86         0.00         0.00
     75.4        9.79            0.00            0.00          9.79         0.00         0.00
     70.7        9.72            0.00            0.00          9.72         0.00         0.00
     66.1        9.64            0.00            0.00          9.64         0.00         0.00
     61.4        9.55            0.00            0.00          9.55         0.00         0.00
     56.8        9.46            0.00            0.00          9.46         0.00         0.00
     52.1        9.37            0.00            0.00          9.37         0.00         0.00
     47.5        9.26            0.00            0.00          9.26         0.00         0.00
     42.8        9.15            0.00            0.00          9.15         0.00         0.00
     38.2        9.02            0.00            0.00          9.02         0.00         0.00
     33.5        8.88            0.00            0.00          8.88         0.00         0.00
     28.9        8.73            0.00            0.00          8.73         0.00         0.00
     24.2        8.54            0.00            0.00          8.54         0.00         0.00
     19.6        8.33            0.00            0.00          8.33         0.00         0.00
     14.9        8.06            0.00            0.00          8.06         0.00         0.00
     10.3        7.71            0.00            0.00          7.71         0.00         0.00
      5.6        7.17            0.00            0.00          7.17         0.00         0.00
      1.0        5.83            0.00            0.00          5.83         0.00         0.00


Harvested Random Seeds after Generation of the Random Numbers:

     65026800 K 1
            0 K 2


Hub-Height Simulated Turbulence Statistical Summary:

   Type of Wind        Min (m/s)   Mean (m/s)    Max (m/s)  Sigma (m/s)       TI (%)
   ----------------    ---------   ----------    ---------  -----------       ------
   Longitudinal (u)         8.78         9.99        11.49        0.429        4.297
   Lateral (v)             -1.09         0.00         1.22        0.357        3.577
   Vertical (w)            -0.61        -0.00         0.80        0.190        1.906
   U component              8.78         9.99        11.49        0.429        4.297
   V component             -1.09         0.00         1.22        0.357        3.577
   W component             -0.61        -0.00         0.80        0.190        1.906
   Horizontal (U&V)         8.78        10.00        11.49        0.430        4.296
   Total                    8.78        10.00        11.49        0.429        4.294

                       Min Reynolds     Mean Reynolds    Max Reynolds    Correlation
   Product             Stress (m/s)^2   Stress (m/s)^2   Stress (m/s)^2  Coefficient
   ----------------    --------------   --------------   --------------  -----------
   u'w'                     -0.668            -0.008             0.435        -0.092
   u'v'                     -1.005             0.003             0.823         0.021
   v'w'                     -0.326             0.004             0.322         0.066


   Friction Velocity (Ustar)  =      0.087 m/s
   Maximum Instantaneous TKE  =      1.222 (m/s)^2
   Maximum Instantaneous CTKE =      0.509 (m/s)^2


Grid Point Variance Summary:

   Y-coord  -79.05  -74.40  -69.75  -65.10  -60.45  -55.80  -51.15  -46.50  -41.85  -37.20  -32.55  -27.90  -23.25  -18.60  -13.95   -9.30   -4.65    0.00    4.65    9.30   13.95   18.60   23.25   27.90   32.55   37.20   41.85   46.50   51.15   55.80   60.45   65.10   69.75   74.40   79.05

   Height   Standard deviation at grid points for the u component:
   168.40    0.424   0.373   0.378   0.391   0.369   0.373   0.399   0.414   0.387   0.411   0.390   0.365   0.380   0.383   0.383   0.352   0.387   0.379   0.380   0.393   0.418   0.422   0.419   0.434   0.417   0.413   0.455   0.419   0.428   0.400   0.371   0.391   0.371   0.381   0.387
   163.75    0.418   0.392   0.399   0.385   0.375   0.373   0.388   0.378   0.379   0.380   0.362   0.355   0.385   0.402   0.372   0.371   0.375   0.381   0.386   0.376   0.391   0.425   0.435   0.443   0.424   0.428   0.457   0.445   0.427   0.420   0.392   0.404   0.383   0.387   0.397
   159.10    0.429   0.425   0.410   0.368   0.368   0.363   0.364   0.382   0.395   0.369   0.372   0.368   0.382   0.407   0.394   0.392   0.375   0.372   0.389   0.376   0.403   0.425   0.430   0.438   0.453   0.440   0.456   0.476   0.446   0.419   0.420   0.412   0.417   0.429   0.442
   154.45    0.407   0.418   0.377   0.358   0.342   0.352   0.345   0.362   0.398   0.366   0.358   0.372   0.375   0.386   0.390   0.394   0.390   0.412   0.374   0.395   0.400   0.436   0.447   0.432   0.451   0.470   0.449   0.488   0.489   0.463   0.429   0.408   0.440   0.465   0.456
   149.80    0.392   0.409   0.379   0.374   0.369   0.386   0.371   0.364   0.376   0.370   0.372   0.380   0.413   0.400   0.372   0.383   0.383   0.409   0.386   0.394   0.405   0.430   0.460   0.454   0.492   0.470   0.466   0.479   0.500   0.472   0.445   0.466   0.498   0.458   0.423
   145.15    0.373   0.389   0.379   0.383   0.378   0.373   0.383   0.373   0.369   0.360   0.379   0.382   0.387   0.418   0.384   0.386   0.398   0.396   0.405   0.416   0.426   0.429   0.458   0.460   0.476   0.466   0.453   0.486   0.476   0.477   0.462   0.454   0.478   0.453   0.447
   140.50    0.362   0.370   0.362   0.381   0.382   0.385   0.398   0.372   0.386   0.365   0.377   0.402   0.380   0.393   0.424   0.425   0.424   0.444   0.479   0.458   0.457   0.424   0.435   0.447   0.458   0.468   0.440   0.464   0.469   0.472   0.469   0.469   0.451   0.448   0.451
   135.85    0.342   0.354   0.350   0.359   0.360   0.390   0.393   0.374   0.364   0.361   0.366   0.374   0.373   0.401   0.411   0.423   0.414   0.436   0.462   0.483   0.468   0.452   0.428   0.433   0.444   0.442   0.452   0.430   0.461   0.469   0.470   0.445   0.449   0.428   0.408
   131.20    0.368   0.386   0.351   0.344   0.349   0.351   0.370   0.377   0.371   0.367   0.353   0.362   0.357   0.361   0.405   0.415   0.384   0.411   0.439   0.463   0.446   0.466   0.456   0.444   0.469   0.461   0.442   0.420   0.436   0.461   0.441   0.436   0.429   0.461   0.406
   126.55    0.365   0.363   0.329   0.344   0.356   0.350   0.363   0.385   0.387   0.354   0.368   0.353   0.380   0.382   0.424   0.436   0.419   0.408   0.427   0.429   0.443   0.471   0.475   0.496   0.511   0.470   0.453   0.429   0.432   0.448   0.441   0.427   0.419   0.433   0.397
   121.90    0.386   0.376   0.362   0.361   0.362   0.366   0.367   0.393   0.416   0.384   0.377   0.368   0.366   0.419   0.418   0.425   0.417   0.388   0.413   0.449   0.458   0.461   0.467   0.477   0.502   0.477   0.488   0.474   0.477   0.458   0.449   0.430   0.404   0.413   0.404
   117.25    0.363   0.350   0.367   0.357   0.363   0.369   0.375   0.393   0.395   0.397   0.400   0.399   0.401   0.443   0.443   0.423   0.449   0.453   0.465   0.456   0.455   0.451   0.468   0.488   0.507   0.505   0.491   0.486   0.470   0.473   0.455   0.441   0.432   0.455   0.424
   112.60    0.369   0.352   0.355   0.375   0.372   0.362   0.377   0.405   0.392   0.377   0.402   0.392   0.394   0.422   0.451   0.441   0.460   0.485   0.478   0.461   0.469   0.437   0.447   0.479   0.488   0.509   0.470   0.471   0.455   0.467   0.457   0.424   0.414   0.401   0.416
   107.95    0.376   0.352   0.386   0.381   0.353   0.363   0.403   0.418   0.399   0.379   0.398   0.403   0.417   0.415   0.418   0.457   0.481   0.474   0.462   0.454   0.468   0.423   0.434   0.475   0.468   0.480   0.484   0.463   0.448   0.427   0.410   0.406   0.374   0.415   0.386
   103.30    0.367   0.363   0.368   0.378   0.378   0.399   0.410   0.425   0.384   0.379   0.404   0.405   0.453   0.418   0.419   0.451   0.474   0.459   0.477   0.487   0.455   0.440   0.418   0.446   0.463   0.473   0.459   0.446   0.446   0.429   0.410   0.376   0.389   0.415   0.410
    98.65    0.388   0.382   0.374   0.382   0.403   0.404   0.400   0.397   0.401   0.393   0.385   0.403   0.439   0.446   0.438   0.453   0.452   0.462   0.482   0.509   0.465   0.469   0.448   0.419   0.444   0.488   0.447   0.450   0.422   0.435   0.405   0.393   0.398   0.381   0.404
    94.00    0.379   0.387   0.359   0.389   0.422   0.407   0.415   0.390   0.387   0.368   0.365   0.394   0.384   0.420   0.397   0.401   0.433   0.464   0.460   0.483   0.472   0.488   0.490   0.433   0.482   0.491   0.493   0.468   0.416   0.413   0.400   0.409   0.374   0.386   0.389
    89.35    0.338   0.354   0.370   0.387   0.388   0.381   0.384   0.372   0.375   0.354   0.357   0.363   0.376   0.367   0.401   0.399   0.418   0.429   0.469   0.471   0.500   0.504   0.480   0.463   0.470   0.494   0.474   0.464   0.418   0.428   0.417   0.412   0.386   0.396   0.378
    84.70    0.339   0.343   0.370   0.384   0.365   0.374   0.374   0.371   0.365   0.346   0.352   0.363   0.363   0.361   0.388   0.410   0.396   0.426   0.446   0.491   0.499   0.503   0.449   0.474   0.498   0.482   0.491   0.479   0.446   0.418   0.397   0.397   0.384   0.372   0.374
    80.05    0.349   0.340   0.354   0.365   0.385   0.394   0.390   0.358   0.347   0.366   0.363   0.366   0.366   0.386   0.406   0.391   0.407   0.394   0.443   0.477   0.501   0.488   0.450   0.459   0.487   0.508   0.479   0.470   0.452   0.423   0.412   0.410   0.380   0.351   0.329
    75.40    0.360   0.369   0.380   0.365   0.365   0.384   0.371   0.353   0.338   0.363   0.361   0.369   0.363   0.390   0.375   0.404   0.402   0.415   0.452   0.473   0.461   0.479   0.464   0.448   0.464   0.508   0.504   0.455   0.482   0.439   0.460   0.398   0.361   0.348   0.338
    70.75    0.403   0.400   0.392   0.362   0.358   0.348   0.389   0.348   0.348   0.362   0.365   0.365   0.403   0.413   0.409   0.428   0.405   0.426   0.433   0.452   0.440   0.459   0.444   0.407   0.460   0.488   0.519   0.470   0.464   0.448   0.465   0.387   0.363   0.352   0.343
    66.10    0.422   0.399   0.393   0.376   0.362   0.337   0.383   0.381   0.374   0.383   0.391   0.372   0.402   0.433   0.429   0.440   0.456   0.468   0.458   0.442   0.475   0.454   0.453   0.453   0.427   0.443   0.479   0.477   0.423   0.457   0.438   0.406   0.376   0.367   0.369
    61.45    0.414   0.411   0.414   0.403   0.357   0.331   0.364   0.370   0.388   0.395   0.403   0.427   0.424   0.420   0.441   0.442   0.463   0.483   0.477   0.487   0.459   0.461   0.470   0.472   0.442   0.453   0.463   0.472   0.433   0.408   0.426   0.386   0.390   0.390   0.392
    56.80    0.416   0.430   0.411   0.395   0.387   0.335   0.341   0.373   0.379   0.421   0.420   0.404   0.430   0.401   0.424   0.430   0.434   0.446   0.471   0.476   0.433   0.460   0.470   0.484   0.458   0.448   0.454   0.459   0.440   0.428   0.426   0.405   0.401   0.370   0.381
    52.15    0.420   0.415   0.422   0.413   0.384   0.365   0.374   0.388   0.387   0.424   0.414   0.408   0.416   0.413   0.448   0.421   0.412   0.412   0.445   0.457   0.460   0.453   0.474   0.483   0.443   0.437   0.457   0.438   0.412   0.424   0.425   0.412   0.398   0.372   0.380
    47.50    0.413   0.411   0.414   0.409   0.394   0.394   0.397   0.405   0.408   0.427   0.407   0.396   0.394   0.417   0.447   0.449   0.419   0.445   0.447   0.443   0.458   0.480   0.451   0.442   0.435   0.425   0.453   0.426   0.413   0.413   0.417   0.417   0.405   0.384   0.376
    42.85    0.410   0.422   0.419   0.407   0.408   0.388   0.384   0.406   0.412   0.395   0.400   0.402   0.410   0.430   0.436   0.439   0.415   0.453   0.491   0.459   0.465   0.444   0.430   0.450   0.457   0.438   0.440   0.448   0.441   0.423   0.437   0.417   0.410   0.399   0.409
    38.20    0.388   0.406   0.428   0.390   0.371   0.362   0.374   0.398   0.388   0.367   0.376   0.398   0.415   0.412   0.411   0.407   0.429   0.445   0.465   0.444   0.462   0.476   0.470   0.460   0.479   0.476   0.462   0.451   0.454   0.450   0.444   0.420   0.403   0.391   0.390
    33.55    0.390   0.412   0.407   0.398   0.383   0.399   0.376   0.352   0.346   0.371   0.368   0.382   0.397   0.400   0.380   0.395   0.416   0.455   0.430   0.431   0.427   0.437   0.438   0.427   0.461   0.478   0.446   0.445   0.474   0.463   0.455   0.425   0.408   0.396   0.400
    28.90    0.376   0.406   0.368   0.393   0.389   0.392   0.374   0.349   0.333   0.356   0.365   0.372   0.394   0.399   0.435   0.412   0.400   0.422   0.411   0.410   0.417   0.427   0.417   0.404   0.409   0.457   0.467   0.461   0.464   0.496   0.489   0.439   0.421   0.414   0.383
    24.25    0.381   0.383   0.376   0.401   0.402   0.413   0.407   0.384   0.351   0.350   0.346   0.367   0.391   0.411   0.428   0.407   0.404   0.415   0.393   0.403   0.387   0.414   0.401   0.399   0.416   0.437   0.435   0.451   0.445   0.481   0.463   0.440   0.414   0.410   0.400
    19.60    0.391   0.389   0.385   0.367   0.396   0.399   0.407   0.404   0.364   0.377   0.374   0.402   0.393   0.452   0.431   0.405   0.412   0.409   0.396   0.409   0.418   0.387   0.391   0.388   0.412   0.440   0.443   0.451   0.472   0.475   0.479   0.436   0.447   0.431   0.419
    14.95    0.426   0.382   0.368   0.358   0.404   0.408   0.423   0.421   0.408   0.384   0.373   0.395   0.424   0.445   0.440   0.425   0.432   0.399   0.392   0.410   0.434   0.400   0.378   0.386   0.407   0.436   0.466   0.429   0.453   0.456   0.441   0.415   0.428   0.403   0.398
    10.30    0.420   0.396   0.394   0.403   0.400   0.378   0.409   0.404   0.397   0.386   0.391   0.408   0.439   0.466   0.471   0.431   0.427   0.428   0.416   0.422   0.422   0.400   0.387   0.383   0.392   0.437   0.424   0.419   0.427   0.428   0.406   0.434   0.415   0.409   0.388
     5.65    0.431   0.398   0.384   0.362   0.379   0.376   0.402   0.420   0.414   0.388   0.399   0.412   0.438   0.462   0.413   0.417   0.409   0.400   0.399   0.403   0.428   0.401   0.397   0.376   0.396   0.419   0.429   0.420   0.407   0.420   0.428   0.423   0.408   0.425   0.424
     1.00    0.422   0.409   0.405   0.396   0.399   0.400   0.418   0.435   0.419   0.412   0.398   0.399   0.428   0.402   0.392   0.396   0.403   0.406   0.421   0.412   0.439   0.447   0.425   0.417   0.397   0.391   0.402   0.387   0.401   0.405   0.409   0.422   0.437   0.433   0.415

   Height   Standard deviation at grid points for the v component:
   168.40    0.307   0.309   0.325   0.337   0.331   0.337   0.347   0.348   0.314   0.283   0.291   0.290   0.291   0.272   0.282   0.299   0.297   0.307   0.321   0.304   0.298   0.304   0.311   0.325   0.316   0.309   0.285   0.294   0.315   0.310   0.314   0.329   0.352   0.347   0.332
   163.75    0.313   0.318   0.317   0.323   0.320   0.312   0.325   0.335   0.325   0.290   0.285   0.299   0.294   0.292   0.301   0.287   0.286   0.289   0.309   0.307   0.298   0.293   0.293   0.303   0.291   0.286   0.291   0.295   0.301   0.304   0.310   0.338   0.345   0.337   0.332
   159.10    0.305   0.315   0.309   0.293   0.300   0.309   0.301   0.319   0.317   0.301   0.294   0.295   0.292   0.290   0.289   0.293   0.289   0.279   0.296   0.299   0.296   0.289   0.284   0.290   0.297   0.284   0.278   0.287   0.291   0.309   0.316   0.324   0.346   0.336   0.339
   154.45    0.299   0.297   0.293   0.311   0.301   0.291   0.294   0.304   0.301   0.301   0.301   0.280   0.292   0.303   0.292   0.295   0.292   0.281   0.281   0.281   0.274   0.283   0.286   0.295   0.293   0.300   0.297   0.310   0.300   0.308   0.316   0.314   0.335   0.328   0.341
   149.80    0.295   0.294   0.303   0.312   0.287   0.308   0.300   0.304   0.294   0.296   0.292   0.280   0.288   0.307   0.302   0.312   0.289   0.282   0.281   0.285   0.276   0.275   0.293   0.302   0.300   0.301   0.315   0.316   0.317   0.318   0.322   0.316   0.312   0.326   0.330
   145.15    0.308   0.311   0.300   0.297   0.282   0.287   0.299   0.295   0.300   0.301   0.309   0.307   0.306   0.291   0.295   0.309   0.298   0.303   0.291   0.294   0.291   0.301   0.312   0.303   0.292   0.306   0.305   0.300   0.326   0.335   0.320   0.322   0.320   0.307   0.330
   140.50    0.327   0.305   0.312   0.300   0.281   0.287   0.288   0.302   0.333   0.316   0.309   0.297   0.297   0.293   0.308   0.319   0.305   0.290   0.286   0.294   0.315   0.343   0.330   0.331   0.312   0.319   0.315   0.312   0.326   0.335   0.341   0.314   0.324   0.338   0.308
   135.85    0.313   0.325   0.315   0.317   0.296   0.285   0.293   0.323   0.324   0.344   0.322   0.298   0.300   0.314   0.333   0.322   0.319   0.322   0.314   0.331   0.330   0.344   0.352   0.351   0.345   0.326   0.314   0.314   0.324   0.335   0.333   0.324   0.335   0.321   0.328
   131.20    0.302   0.295   0.320   0.312   0.316   0.314   0.313   0.329   0.326   0.335   0.319   0.321   0.320   0.322   0.328   0.341   0.335   0.323   0.330   0.347   0.341   0.352   0.337   0.342   0.350   0.330   0.330   0.321   0.325   0.332   0.339   0.325   0.321   0.313   0.314
   126.55    0.297   0.323   0.322   0.324   0.335   0.334   0.312   0.298   0.308   0.333   0.325   0.307   0.308   0.334   0.337   0.341   0.333   0.323   0.326   0.332   0.339   0.359   0.347   0.351   0.344   0.335   0.341   0.342   0.335   0.327   0.339   0.328   0.321   0.310   0.290
   121.90    0.325   0.322   0.319   0.328   0.342   0.345   0.336   0.302   0.306   0.311   0.318   0.298   0.314   0.329   0.319   0.326   0.338   0.328   0.341   0.334   0.330   0.346   0.363   0.354   0.346   0.355   0.346   0.356   0.334   0.327   0.334   0.316   0.315   0.295   0.300
   117.25    0.343   0.333   0.324   0.318   0.335   0.345   0.336   0.315   0.301   0.309   0.291   0.317   0.318   0.329   0.341   0.343   0.350   0.343   0.337   0.341   0.331   0.340   0.343   0.355   0.357   0.351   0.367   0.355   0.344   0.331   0.328   0.326   0.307   0.293   0.309
   112.60    0.341   0.330   0.339   0.338   0.341   0.343   0.339   0.338   0.320   0.308   0.322   0.316   0.340   0.345   0.346   0.347   0.344   0.327   0.337   0.348   0.341   0.333   0.343   0.329   0.336   0.343   0.360   0.339   0.322   0.324   0.320   0.311   0.303   0.320   0.322
   107.95    0.367   0.353   0.354   0.345   0.344   0.345   0.350   0.336   0.342   0.334   0.315   0.337   0.353   0.346   0.362   0.358   0.345   0.333   0.339   0.325   0.332   0.326   0.322   0.329   0.337   0.331   0.346   0.337   0.327   0.323   0.303   0.296   0.292   0.314   0.309
   103.30    0.346   0.348   0.347   0.352   0.351   0.345   0.332   0.322   0.325   0.337   0.316   0.332   0.355   0.344   0.356   0.338   0.347   0.338   0.353   0.357   0.354   0.327   0.335   0.347   0.334   0.330   0.355   0.350   0.345   0.313   0.309   0.320   0.312   0.309   0.312
    98.65    0.332   0.329   0.337   0.354   0.354   0.351   0.337   0.322   0.326   0.328   0.315   0.341   0.345   0.347   0.350   0.350   0.345   0.339   0.361   0.366   0.362   0.334   0.334   0.328   0.332   0.340   0.355   0.358   0.347   0.333   0.327   0.335   0.326   0.324   0.322
    94.00    0.327   0.326   0.330   0.343   0.341   0.362   0.343   0.324   0.335   0.323   0.311   0.321   0.328   0.344   0.362   0.373   0.352   0.344   0.357   0.365   0.366   0.362   0.342   0.348   0.322   0.320   0.339   0.336   0.345   0.347   0.334   0.342   0.339   0.325   0.322
    89.35    0.327   0.327   0.333   0.345   0.350   0.363   0.345   0.349   0.344   0.332   0.312   0.317   0.346   0.358   0.384   0.364   0.365   0.357   0.369   0.369   0.364   0.356   0.371   0.372   0.336   0.304   0.321   0.329   0.310   0.348   0.368   0.354   0.342   0.328   0.325
    84.70    0.342   0.320   0.330   0.320   0.334   0.348   0.377   0.370   0.373   0.354   0.352   0.354   0.353   0.374   0.383   0.383   0.379   0.384   0.368   0.369   0.358   0.349   0.359   0.371   0.340   0.324   0.321   0.330   0.326   0.339   0.352   0.357   0.352   0.352   0.343
    80.05    0.349   0.334   0.337   0.338   0.335   0.360   0.360   0.380   0.386   0.402   0.368   0.347   0.338   0.349   0.375   0.389   0.380   0.373   0.357   0.365   0.354   0.360   0.365   0.368   0.347   0.342   0.330   0.320   0.318   0.348   0.352   0.352   0.317   0.345   0.348
    75.40    0.337   0.337   0.343   0.355   0.355   0.363   0.362   0.386   0.393   0.388   0.380   0.360   0.374   0.370   0.377   0.390   0.370   0.351   0.343   0.354   0.360   0.356   0.345   0.346   0.333   0.327   0.345   0.337   0.343   0.348   0.341   0.321   0.322   0.336   0.313
    70.75    0.356   0.353   0.359   0.346   0.363   0.360   0.360   0.368   0.372   0.388   0.385   0.383   0.379   0.380   0.371   0.376   0.349   0.363   0.363   0.368   0.342   0.343   0.342   0.334   0.324   0.324   0.341   0.336   0.351   0.362   0.348   0.331   0.308   0.317   0.320
    66.10    0.367   0.358   0.350   0.347   0.349   0.344   0.347   0.363   0.378   0.364   0.383   0.410   0.393   0.399   0.383   0.384   0.352   0.342   0.339   0.354   0.328   0.343   0.335   0.327   0.322   0.336   0.339   0.323   0.337   0.344   0.343   0.318   0.314   0.312   0.322
    61.45    0.376   0.344   0.338   0.325   0.336   0.349   0.356   0.347   0.366   0.382   0.377   0.386   0.383   0.352   0.361   0.362   0.355   0.330   0.327   0.340   0.327   0.343   0.342   0.329   0.336   0.340   0.340   0.326   0.330   0.340   0.329   0.313   0.303   0.304   0.309
    56.80    0.358   0.335   0.352   0.329   0.332   0.353   0.347   0.362   0.344   0.366   0.372   0.358   0.351   0.345   0.363   0.355   0.330   0.340   0.336   0.337   0.336   0.330   0.332   0.342   0.319   0.333   0.339   0.337   0.329   0.330   0.318   0.309   0.298   0.298   0.299
    52.15    0.356   0.337   0.343   0.333   0.338   0.351   0.349   0.347   0.362   0.363   0.359   0.368   0.344   0.339   0.366   0.368   0.338   0.340   0.350   0.341   0.344   0.346   0.333   0.312   0.325   0.322   0.347   0.353   0.328   0.323   0.318   0.302   0.295   0.297   0.282
    47.50    0.344   0.337   0.341   0.315   0.319   0.342   0.350   0.330   0.338   0.358   0.359   0.342   0.343   0.333   0.342   0.367   0.355   0.355   0.369   0.355   0.346   0.351   0.344   0.334   0.333   0.348   0.346   0.349   0.331   0.332   0.316   0.289   0.283   0.287   0.265
    42.85    0.333   0.350   0.336   0.331   0.321   0.316   0.308   0.327   0.322   0.332   0.343   0.330   0.335   0.330   0.333   0.356   0.381   0.369   0.358   0.354   0.345   0.343   0.345   0.340   0.334   0.345   0.343   0.337   0.322   0.329   0.302   0.286   0.296   0.300   0.284
    38.20    0.351   0.345   0.329   0.324   0.308   0.311   0.312   0.311   0.312   0.324   0.330   0.321   0.331   0.336   0.333   0.335   0.341   0.351   0.352   0.346   0.351   0.336   0.339   0.348   0.344   0.358   0.331   0.326   0.319   0.314   0.310   0.295   0.298   0.290   0.281
    33.55    0.343   0.336   0.330   0.345   0.330   0.316   0.317   0.314   0.314   0.309   0.320   0.311   0.314   0.317   0.319   0.314   0.331   0.349   0.344   0.352   0.340   0.341   0.337   0.338   0.350   0.334   0.327   0.330   0.303   0.310   0.294   0.301   0.295   0.296   0.286
    28.90    0.331   0.340   0.343   0.330   0.333   0.330   0.332   0.326   0.313   0.319   0.324   0.309   0.321   0.315   0.306   0.308   0.309   0.326   0.320   0.334   0.329   0.337   0.336   0.340   0.355   0.343   0.319   0.318   0.305   0.322   0.303   0.289   0.292   0.304   0.305
    24.25    0.368   0.348   0.339   0.311   0.303   0.310   0.306   0.314   0.323   0.341   0.334   0.341   0.337   0.323   0.329   0.325   0.304   0.318   0.323   0.317   0.326   0.343   0.327   0.339   0.339   0.329   0.311   0.314   0.309   0.314   0.317   0.305   0.301   0.304   0.318
    19.60    0.355   0.350   0.349   0.329   0.314   0.321   0.319   0.330   0.338   0.341   0.345   0.356   0.347   0.330   0.328   0.321   0.305   0.336   0.325   0.327   0.338   0.341   0.354   0.340   0.333   0.315   0.316   0.311   0.306   0.314   0.307   0.299   0.300   0.310   0.310
    14.95    0.358   0.349   0.337   0.338   0.311   0.306   0.316   0.318   0.343   0.337   0.335   0.341   0.323   0.326   0.331   0.319   0.316   0.328   0.343   0.338   0.336   0.349   0.346   0.333   0.341   0.320   0.323   0.330   0.317   0.303   0.295   0.317   0.306   0.315   0.305
    10.30    0.342   0.345   0.351   0.331   0.306   0.306   0.301   0.320   0.318   0.326   0.337   0.335   0.324   0.323   0.342   0.331   0.333   0.327   0.319   0.332   0.336   0.338   0.325   0.324   0.321   0.332   0.326   0.315   0.303   0.309   0.309   0.322   0.330   0.331   0.311
     5.65    0.341   0.354   0.349   0.328   0.319   0.344   0.333   0.332   0.329   0.312   0.310   0.323   0.334   0.340   0.325   0.342   0.344   0.338   0.329   0.326   0.338   0.337   0.339   0.319   0.329   0.327   0.330   0.311   0.302   0.300   0.311   0.311   0.332   0.321   0.320
     1.00    0.354   0.357   0.343   0.329   0.348   0.346   0.357   0.336   0.332   0.346   0.314   0.298   0.326   0.333   0.320   0.338   0.334   0.348   0.344   0.321   0.341   0.335   0.320   0.329   0.319   0.315   0.315   0.311   0.302   0.292   0.293   0.297   0.304   0.314   0.310

   Height   Standard deviation at grid points for the w component:
   168.40    0.189   0.188   0.185   0.194   0.203   0.196   0.191   0.195   0.201   0.190   0.197   0.188   0.189   0.195   0.187   0.187   0.192   0.193   0.197   0.198   0.201   0.202   0.188   0.185   0.185   0.189   0.189   0.187   0.197   0.189   0.181   0.180   0.182   0.184   0.187
   163.75    0.195   0.186   0.186   0.187   0.195   0.190   0.192   0.197   0.202   0.203   0.197   0.190   0.189   0.187   0.178   0.188   0.191   0.196   0.202   0.207   0.201   0.193   0.194   0.186   0.187   0.185   0.188   0.180   0.185   0.189   0.192   0.182   0.177   0.187   0.191
   159.10    0.191   0.190   0.188   0.187   0.188   0.184   0.190   0.194   0.198   0.202   0.200   0.196   0.178   0.186   0.188   0.191   0.196   0.201   0.204   0.201   0.200   0.196   0.194   0.191   0.188   0.188   0.188   0.189   0.187   0.191   0.191   0.189   0.175   0.176   0.184
   154.45    0.187   0.184   0.186   0.185   0.196   0.189   0.187   0.193   0.196   0.196   0.195   0.191   0.186   0.189   0.187   0.193   0.199   0.208   0.204   0.198   0.194   0.192   0.186   0.186   0.188   0.185   0.177   0.178   0.187   0.188   0.189   0.188   0.178   0.171   0.188
   149.80    0.184   0.184   0.193   0.186   0.188   0.192   0.191   0.193   0.197   0.199   0.194   0.184   0.189   0.195   0.189   0.197   0.198   0.198   0.195   0.182   0.184   0.186   0.185   0.186   0.179   0.178   0.177   0.174   0.176   0.185   0.187   0.181   0.168   0.176   0.183
   145.15    0.182   0.189   0.190   0.193   0.189   0.195   0.196   0.194   0.197   0.192   0.196   0.198   0.196   0.188   0.193   0.194   0.193   0.197   0.189   0.185   0.182   0.188   0.192   0.196   0.184   0.180   0.185   0.182   0.181   0.191   0.188   0.180   0.170   0.175   0.175
   140.50    0.182   0.190   0.193   0.190   0.193   0.192   0.201   0.208   0.203   0.197   0.199   0.205   0.201   0.196   0.194   0.188   0.185   0.197   0.192   0.190   0.180   0.191   0.190   0.194   0.195   0.190   0.190   0.183   0.186   0.188   0.190   0.183   0.175   0.172   0.178
   135.85    0.182   0.185   0.190   0.190   0.185   0.190   0.200   0.205   0.202   0.194   0.204   0.208   0.202   0.193   0.199   0.184   0.180   0.190   0.194   0.196   0.181   0.197   0.194   0.193   0.196   0.194   0.188   0.191   0.196   0.184   0.186   0.182   0.180   0.174   0.175
   131.20    0.181   0.187   0.199   0.191   0.194   0.198   0.203   0.205   0.199   0.203   0.210   0.208   0.200   0.196   0.199   0.191   0.189   0.187   0.193   0.193   0.198   0.192   0.204   0.201   0.202   0.188   0.188   0.188   0.186   0.187   0.183   0.181   0.184   0.185   0.183
   126.55    0.187   0.184   0.192   0.191   0.195   0.204   0.210   0.207   0.208   0.211   0.207   0.213   0.210   0.202   0.205   0.196   0.190   0.188   0.187   0.193   0.198   0.198   0.211   0.205   0.198   0.195   0.196   0.186   0.187   0.183   0.185   0.181   0.177   0.184   0.193
   121.90    0.186   0.184   0.188   0.196   0.204   0.203   0.205   0.205   0.212   0.211   0.203   0.197   0.206   0.203   0.202   0.200   0.204   0.196   0.192   0.186   0.192   0.201   0.198   0.205   0.190   0.191   0.196   0.192   0.184   0.183   0.187   0.183   0.187   0.189   0.195
   117.25    0.187   0.186   0.186   0.192   0.198   0.202   0.201   0.203   0.204   0.206   0.204   0.197   0.194   0.196   0.195   0.194   0.200   0.205   0.201   0.198   0.192   0.192   0.199   0.204   0.194   0.192   0.191   0.191   0.195   0.192   0.187   0.188   0.194   0.192   0.195
   112.60    0.197   0.193   0.203   0.201   0.195   0.201   0.198   0.204   0.204   0.190   0.198   0.196   0.190   0.189   0.191   0.193   0.194   0.193   0.203   0.195   0.189   0.192   0.204   0.205   0.198   0.195   0.187   0.184   0.180   0.187   0.187   0.190   0.187   0.195   0.194
   107.95    0.192   0.190   0.199   0.200   0.199   0.201   0.196   0.204   0.205   0.199   0.199   0.200   0.192   0.196   0.195   0.192   0.187   0.192   0.201   0.186   0.182   0.190   0.198   0.203   0.193   0.185   0.182   0.179   0.184   0.187   0.187   0.194   0.183   0.186   0.181
   103.30    0.192   0.195   0.201   0.193   0.198   0.204   0.197   0.200   0.203   0.198   0.195   0.195   0.192   0.195   0.195   0.198   0.197   0.185   0.189   0.182   0.185   0.189   0.197   0.194   0.183   0.184   0.190   0.192   0.192   0.192   0.194   0.195   0.187   0.187   0.193
    98.65    0.193   0.196   0.194   0.202   0.200   0.202   0.202   0.197   0.203   0.199   0.200   0.197   0.200   0.192   0.183   0.200   0.198   0.193   0.185   0.186   0.194   0.196   0.199   0.199   0.192   0.192   0.199   0.195   0.197   0.189   0.190   0.187   0.189   0.187   0.193
    94.00    0.193   0.187   0.184   0.187   0.197   0.197   0.203   0.204   0.200   0.197   0.201   0.197   0.199   0.203   0.196   0.199   0.195   0.188   0.190   0.190   0.191   0.194   0.191   0.195   0.189   0.194   0.195   0.197   0.188   0.194   0.192   0.185   0.188   0.194   0.194
    89.35    0.190   0.191   0.190   0.187   0.191   0.195   0.199   0.199   0.198   0.200   0.198   0.203   0.192   0.199   0.207   0.203   0.204   0.190   0.183   0.185   0.189   0.193   0.197   0.194   0.195   0.194   0.194   0.187   0.190   0.200   0.201   0.185   0.190   0.193   0.200
    84.70    0.197   0.196   0.194   0.200   0.202   0.194   0.190   0.197   0.196   0.195   0.202   0.195   0.190   0.198   0.203   0.202   0.201   0.191   0.193   0.190   0.189   0.195   0.197   0.190   0.187   0.195   0.194   0.189   0.192   0.197   0.196   0.197   0.199   0.191   0.197
    80.05    0.196   0.192   0.185   0.196   0.199   0.194   0.190   0.190   0.193   0.204   0.200   0.193   0.192   0.198   0.200   0.203   0.210   0.193   0.193   0.195   0.204   0.200   0.202   0.211   0.203   0.197   0.184   0.191   0.191   0.199   0.195   0.198   0.198   0.200   0.195
    75.40    0.202   0.199   0.194   0.191   0.193   0.188   0.192   0.189   0.193   0.202   0.203   0.196   0.195   0.195   0.204   0.197   0.192   0.195   0.190   0.194   0.199   0.209   0.204   0.201   0.206   0.188   0.187   0.192   0.197   0.187   0.200   0.201   0.201   0.187   0.197
    70.75    0.199   0.206   0.196   0.194   0.192   0.195   0.191   0.193   0.187   0.190   0.200   0.194   0.193   0.192   0.198   0.200   0.193   0.198   0.206   0.201   0.208   0.207   0.205   0.196   0.194   0.184   0.187   0.189   0.197   0.193   0.194   0.196   0.196   0.198   0.194
    66.10    0.198   0.200   0.205   0.201   0.190   0.194   0.193   0.190   0.201   0.197   0.195   0.191   0.186   0.183   0.192   0.191   0.200   0.201   0.214   0.201   0.209   0.220   0.214   0.201   0.191   0.196   0.201   0.200   0.197   0.196   0.199   0.200   0.195   0.196   0.199
    61.45    0.201   0.198   0.203   0.201   0.199   0.207   0.195   0.196   0.200   0.199   0.193   0.191   0.188   0.191   0.189   0.192   0.204   0.212   0.203   0.206   0.214   0.209   0.206   0.200   0.195   0.200   0.204   0.199   0.199   0.202   0.196   0.196   0.193   0.194   0.189
    56.80    0.208   0.210   0.207   0.198   0.199   0.202   0.196   0.196   0.193   0.194   0.194   0.187   0.197   0.187   0.190   0.188   0.199   0.208   0.208   0.196   0.205   0.208   0.202   0.201   0.200   0.202   0.203   0.195   0.193   0.204   0.198   0.194   0.198   0.200   0.194
    52.15    0.210   0.210   0.209   0.203   0.203   0.200   0.197   0.196   0.191   0.195   0.184   0.187   0.186   0.189   0.187   0.189   0.195   0.195   0.198   0.200   0.197   0.201   0.199   0.200   0.204   0.209   0.206   0.206   0.200   0.199   0.193   0.193   0.195   0.196   0.194
    47.50    0.209   0.204   0.207   0.208   0.205   0.204   0.208   0.197   0.193   0.200   0.191   0.186   0.185   0.185   0.186   0.182   0.187   0.181   0.186   0.192   0.195   0.195   0.198   0.205   0.202   0.203   0.201   0.196   0.199   0.193   0.193   0.185   0.187   0.188   0.188
    42.85    0.199   0.203   0.206   0.208   0.208   0.209   0.206   0.197   0.192   0.193   0.187   0.189   0.182   0.179   0.181   0.184   0.174   0.183   0.180   0.184   0.186   0.194   0.189   0.195   0.192   0.194   0.192   0.195   0.198   0.195   0.183   0.186   0.182   0.187   0.185
    38.20    0.204   0.197   0.201   0.197   0.196   0.199   0.204   0.195   0.196   0.187   0.191   0.188   0.189   0.182   0.188   0.185   0.182   0.182   0.179   0.182   0.187   0.188   0.191   0.193   0.191   0.193   0.192   0.194   0.194   0.189   0.187   0.181   0.182   0.185   0.188
    33.55    0.200   0.203   0.196   0.194   0.198   0.202   0.191   0.194   0.198   0.198   0.187   0.188   0.193   0.188   0.186   0.195   0.192   0.188   0.183   0.190   0.186   0.195   0.191   0.189   0.189   0.195   0.196   0.196   0.194   0.189   0.189   0.189   0.180   0.181   0.183
    28.90    0.209   0.197   0.197   0.192   0.198   0.198   0.199   0.193   0.197   0.187   0.192   0.196   0.188   0.186   0.189   0.199   0.197   0.195   0.189   0.184   0.185   0.193   0.194   0.190   0.194   0.197   0.195   0.193   0.194   0.187   0.191   0.174   0.176   0.178   0.181
    24.25    0.195   0.194   0.194   0.187   0.196   0.197   0.203   0.200   0.195   0.191   0.200   0.191   0.193   0.193   0.197   0.201   0.198   0.195   0.194   0.189   0.187   0.192   0.188   0.193   0.197   0.197   0.204   0.197   0.195   0.186   0.186   0.185   0.177   0.181   0.187
    19.60    0.183   0.187   0.183   0.190   0.188   0.192   0.198   0.203   0.200   0.196   0.192   0.196   0.196   0.193   0.191   0.195   0.195   0.200   0.198   0.196   0.192   0.194   0.196   0.192   0.193   0.198   0.199   0.197   0.200   0.192   0.190   0.188   0.180   0.183   0.185
    14.95    0.184   0.189   0.191   0.187   0.190   0.189   0.190   0.193   0.193   0.196   0.190   0.186   0.195   0.195   0.197   0.192   0.186   0.194   0.197   0.190   0.189   0.191   0.187   0.199   0.192   0.187   0.198   0.198   0.204   0.196   0.191   0.194   0.191   0.179   0.185
    10.30    0.191   0.191   0.191   0.184   0.196   0.194   0.187   0.193   0.193   0.198   0.203   0.188   0.193   0.198   0.193   0.192   0.190   0.192   0.188   0.191   0.197   0.199   0.192   0.196   0.191   0.189   0.187   0.191   0.194   0.194   0.191   0.187   0.184   0.189   0.186
     5.65    0.193   0.194   0.193   0.182   0.186   0.189   0.186   0.195   0.195   0.191   0.195   0.196   0.196   0.194   0.184   0.187   0.190   0.193   0.187   0.189   0.189   0.193   0.198   0.191   0.187   0.188   0.192   0.182   0.189   0.192   0.191   0.195   0.191   0.184   0.184
     1.00    0.192   0.193   0.190   0.184   0.187   0.191   0.190   0.196   0.194   0.198   0.194   0.197   0.189   0.186   0.191   0.195   0.192   0.191   0.190   0.192   0.201   0.200   0.198   0.196   0.196   0.189   0.183   0.190   0.190   0.188   0.195   0.193   0.188   0.200   0.190

   Mean standard deviation across all grid points:
      u component:    0.415 m/s
      v component:    0.329 m/s
      w component:    0.193 m/s


U-component (X) statistics from the interpolated hub point:

   Mean =   9.9913 m/s
   TI   =   4.2976 %


Processing complete.  5636.9 CPU seconds used.
