
This summary file was generated by TurbSim (from OpenFAST-v3.5.3) on 19-Apr-2025 at 22:35:16.


Runtime Options:

1682697194  Random seed #1
    RANLUX  Type of random number generator
         F  Output binary HH turbulence parameters?
         F  Output formatted turbulence parameters?
         F  Output AeroDyn HH files?
         T  Output AeroDyn FF files?
         F  Output BLADED FF files?
         F  Output tower data?
         F  Output HAWC FF files?
         F  Output formatted FF files?
         T  Output coherent turbulence time step file?
 0 -  NONE  IEC turbulence models scaled to exact specified standard deviation


Turbine/Model Specifications:

        39  Vertical grid-point matrix dimension
       193  Horizontal grid-point matrix dimension
     0.250  Time step [seconds]
   900.000  Analysis time [seconds]
   900.000  Usable output time [seconds]
   177.700  Hub height [m]
   353.400  Grid height [m]
  1785.600  Grid width [m]
     0.000  Vertical flow angle [degrees]
     0.000  Horizontal flow angle [degrees]


Meteorological Boundary Conditions:

    IECKAI  IEC Kaimal spectral model
         1  IEC standard: IEC 61400-1 Ed. 3: 2005
     5.000  Percent turbulence intensity, IEC 61400-1 Ed. 3: 2005
       NTM  IEC Normal Turbulence Model
       N/A  IEC Extreme Turbulence Model (ETM) "c" parameter [m/s]
       USR  Wind profile type
    90.000  Reference height [m]
       N/A  Reference wind speed [m/s]
       N/A  Jet height [m]
       N/A  Power law exponent
     0.030  Surface roughness length [m]


Non-IEC Meteorological Boundary Conditions:

       N/A  Site latitude [degrees]
       N/A  Gradient Richardson number
       N/A  Friction or shear velocity [m/s]
       N/A  Mixing layer depth [m]
       N/A  Mean hub u'w' Reynolds stress
       N/A  Mean hub u'v' Reynolds stress
       N/A  Mean hub v'w' Reynolds stress


Spatial Coherence Models:

       IEC  u-component coherence model
       IEC  v-component coherence model
       IEC  w-component coherence model
(   12.000, 0.353E-03)  u-component coherence parameters
(   12.000, 0.353E-03)  v-component coherence parameters
(   12.000, 0.353E-03)  w-component coherence parameters
       N/A  Coherence exponent


User-Defined Profiles:

  Height   Wind Speed   Horizontal Angle
   (m)        (m/s)          (deg)      
  ------   ----------   ----------------
  353.40      10.00         318.19
  334.80      10.00         321.14
  316.20      10.00         324.10
  297.60      10.00         327.05
  279.00      10.00         330.00
  260.40      10.00         332.95
  241.80      10.00         335.90
  223.20      10.00         338.86
  204.60      10.00         341.81
  186.00      10.00         344.76
  167.40      10.00         347.71
  148.80      10.00         350.67
  130.20      10.00         353.62
  111.60      10.00         356.57
   93.00      10.00         359.52
   74.40      10.00           2.48
   55.80      10.00           5.43
   37.20      10.00           8.38
   18.60      10.00          11.33
    0.00      10.00          14.29


You have requested that the following file(s) be generated:

   /kfs3/scratch/agupta/Projects/RL_Incubator/FinalRuns_Veer/Seed4/./FFSim_Seed4/Cond00_v10.0_PL0.12_TI5.0/Seed_5/Low.bts (AeroDyn/TurbSim full-field wind file)


Turbulence Simulation Scaling Parameter Summary:

   Turbulence model used                            =  IEC Kaimal
   Turbulence characteristic                        =  User-specified
   IEC standard                                     =  IEC 61400-1 Ed. 3: 2005
   Mean wind speed at hub height                    =   10.000 m/s
   Characteristic value of standard deviation       =    0.500 m/s
   Turbulence scale                                 =   42.000 m
   u-component integral scale                       =  340.200 m
   Coherency scale                                  =  340.200 m
   Characteristic value of hub turbulence intensity =    5.000%
   Gradient Richardson number                       =    0.000

   Wind profile type                                =  Linear interpolation of user-defined profile
   Equivalent power law exponent (upper rotor disk) =    0.000
   Mean shear across rotor disk                     =    0.000 (m/s)/m
   Assumed rotor diameter                           =  353.400 m
   Surface roughness length                         =    0.030 m

   Nyquist frequency of turbulent wind field        =    2.000 Hz

   Number of time steps in the FFT                  =     3600
   Number of time steps output                      =     3600
   Number of points simulated                       =     7527


Mean Flow Angles:

   Vertical   =   0.0 degrees
   Horizontal =   0.0 degrees

Mean Wind Speed Profile:

   Height    Wind Speed   Horizontal Angle  Vertical Angle  U-comp (X)   V-comp (Y)   W-comp (Z)
     (m)        (m/s)         (degrees)       (degrees)       (m/s)        (m/s)        (m/s)   
   ------    ----------   ----------------  --------------  ----------   ----------   ----------
    354.4       10.00          318.19            0.00          7.45        -6.67         0.00
    345.1       10.00          319.51            0.00          7.60        -6.49         0.00
    335.8       10.00          320.98            0.00          7.77        -6.30         0.00
    326.5       10.00          322.46            0.00          7.93        -6.09         0.00
    317.2       10.00          323.94            0.00          8.08        -5.89         0.00
    307.9       10.00          325.41            0.00          8.23        -5.68         0.00
    298.6       10.00          326.89            0.00          8.38        -5.46         0.00
    289.3       10.00          328.37            0.00          8.51        -5.25         0.00
    280.0       10.00          329.84            0.00          8.65        -5.02         0.00
    270.7       10.00          331.32            0.00          8.77        -4.80         0.00
    261.4       10.00          332.79            0.00          8.89        -4.57         0.00
    252.1       10.00          334.27            0.00          9.01        -4.34         0.00
    242.8       10.00          335.75            0.00          9.12        -4.11         0.00
    233.5       10.00          337.22            0.00          9.22        -3.87         0.00
    224.2       10.00          338.70            0.00          9.32        -3.63         0.00
    214.9       10.00          340.17            0.00          9.41        -3.39         0.00
    205.6       10.00          341.65            0.00          9.49        -3.15         0.00
    196.3       10.00          343.13            0.00          9.57        -2.90         0.00
    187.0       10.00          344.60            0.00          9.64        -2.66         0.00
    177.7       10.00          346.08            0.00          9.71        -2.41         0.00
    168.4       10.00          347.56            0.00          9.77        -2.15         0.00
    159.1       10.00          349.03            0.00          9.82        -1.90         0.00
    149.8       10.00          350.51            0.00          9.86        -1.65         0.00
    140.5       10.00          351.98            0.00          9.90        -1.39         0.00
    131.2       10.00          353.46            0.00          9.93        -1.14         0.00
    121.9       10.00          354.94            0.00          9.96        -0.88         0.00
    112.6       10.00          356.41            0.00          9.98        -0.63         0.00
    103.3       10.00          357.89            0.00          9.99        -0.37         0.00
     94.0       10.00          359.37            0.00         10.00        -0.11         0.00
     84.7       10.00          360.84            0.00         10.00         0.15         0.00
     75.4       10.00          362.32            0.00          9.99         0.40         0.00
     66.1       10.00            3.79            0.00          9.98         0.66         0.00
     56.8       10.00            5.27            0.00          9.96         0.92         0.00
     47.5       10.00            6.75            0.00          9.93         1.17         0.00
     38.2       10.00            8.22            0.00          9.90         1.43         0.00
     28.9       10.00            9.70            0.00          9.86         1.68         0.00
     19.6       10.00           11.17            0.00          9.81         1.94         0.00
     10.3       10.00           12.65            0.00          9.76         2.19         0.00
      1.0       10.00           14.13            0.00          9.70         2.44         0.00


Harvested Random Seeds after Generation of the Random Numbers:

    377667225 K 1
            0 K 2


Hub-Height Simulated Turbulence Statistical Summary:

   Type of Wind        Min (m/s)   Mean (m/s)    Max (m/s)  Sigma (m/s)       TI (%)
   ----------------    ---------   ----------    ---------  -----------       ------
   Longitudinal (u)         8.23        10.00        11.51        0.530        5.301
   Lateral (v)             -1.14        -0.00         1.26        0.344        3.436
   Vertical (w)            -0.84         0.00         0.74        0.233        2.331
   U component              7.94         9.71        11.34        0.513        5.281
   V component             -3.56        -2.41        -1.14        0.369        3.805
   W component             -0.84         0.00         0.74        0.233        2.401
   Horizontal (U&V)         8.23        10.01        11.53        0.530        5.293
   Total                    8.23        10.01        11.53        0.530        5.292

                       Min Reynolds     Mean Reynolds    Max Reynolds    Correlation
   Product             Stress (m/s)^2   Stress (m/s)^2   Stress (m/s)^2  Coefficient
   ----------------    --------------   --------------   --------------  -----------
   u'w'                     -0.469            -0.001             0.650        -0.010
   u'v'                     -0.960            -0.019             1.217        -0.104
   v'w'                     -0.540             0.000             0.532         0.003


   Friction Velocity (Ustar)  =      0.036 m/s
   Maximum Instantaneous TKE  =      1.587 (m/s)^2
   Maximum Instantaneous CTKE =      0.683 (m/s)^2


Grid Point Variance Summary:

   Y-coord -892.80 -883.50 -874.20 -864.90 -855.60 -846.30 -837.00 -827.70 -818.40 -809.10 -799.80 -790.50 -781.20 -771.90 -762.60 -753.30 -744.00 -734.70 -725.40 -716.10 -706.80 -697.50 -688.20 -678.90 -669.60 -660.30 -651.00 -641.70 -632.40 -623.10 -613.80 -604.50 -595.20 -585.90 -576.60 -567.30 -558.00 -548.70 -539.40 -530.10 -520.80 -511.50 -502.20 -492.90 -483.60 -474.30 -465.00 -455.70 -446.40 -437.10 -427.80 -418.50 -409.20 -399.90 -390.60 -381.30 -372.00 -362.70 -353.40 -344.10 -334.80 -325.50 -316.20 -306.90 -297.60 -288.30 -279.00 -269.70 -260.40 -251.10 -241.80 -232.50 -223.20 -213.90 -204.60 -195.30 -186.00 -176.70 -167.40 -158.10 -148.80 -139.50 -130.20 -120.90 -111.60 -102.30  -93.00  -83.70  -74.40  -65.10  -55.80  -46.50  -37.20  -27.90  -18.60   -9.30    0.00    9.30   18.60   27.90   37.20   46.50   55.80   65.10   74.40   83.70   93.00  102.30  111.60  120.90  130.20  139.50  148.80  158.10  167.40  176.70  186.00  195.30  204.60  213.90  223.20  232.50  241.80  251.10  260.40  269.70  279.00  288.30  297.60  306.90  316.20  325.50  334.80  344.10  353.40  362.70  372.00  381.30  390.60  399.90  409.20  418.50  427.80  437.10  446.40  455.70  465.00  474.30  483.60  492.90  502.20  511.50  520.80  530.10  539.40  548.70  558.00  567.30  576.60  585.90  595.20  604.50  613.80  623.10  632.40  641.70  651.00  660.30  669.60  678.90  688.20  697.50  706.80  716.10  725.40  734.70  744.00  753.30  762.60  771.90  781.20  790.50  799.80  809.10  818.40  827.70  837.00  846.30  855.60  864.90  874.20  883.50  892.80

   Height   Standard deviation at grid points for the u component:
   354.40    0.512   0.523   0.507   0.499   0.452   0.442   0.445   0.462   0.472   0.436   0.444   0.459   0.453   0.464   0.471   0.482   0.473   0.463   0.475   0.446   0.421   0.436   0.443   0.453   0.478   0.454   0.488   0.476   0.507   0.532   0.554   0.502   0.510   0.540   0.563   0.584   0.561   0.558   0.524   0.506   0.434   0.444   0.446   0.435   0.420   0.428   0.384   0.421   0.432   0.444   0.465   0.453   0.460   0.475   0.464   0.450   0.451   0.456   0.462   0.431   0.440   0.475   0.478   0.485   0.497   0.453   0.446   0.437   0.458   0.437   0.443   0.447   0.480   0.456   0.439   0.447   0.462   0.461   0.431   0.455   0.433   0.450   0.436   0.481   0.462   0.441   0.449   0.419   0.423   0.398   0.412   0.439   0.414   0.397   0.398   0.375   0.408   0.410   0.387   0.438   0.417   0.427   0.408   0.433   0.456   0.470   0.490   0.492   0.474   0.474   0.466   0.494   0.496   0.520   0.472   0.451   0.461   0.470   0.502   0.529   0.498   0.486   0.504   0.541   0.516   0.500   0.485   0.479   0.506   0.510   0.432   0.440   0.466   0.471   0.467   0.480   0.444   0.468   0.440   0.425   0.423   0.434   0.452   0.450   0.427   0.425   0.439   0.443   0.450   0.474   0.482   0.473   0.464   0.450   0.434   0.440   0.428   0.445   0.450   0.414   0.390   0.414   0.456   0.427   0.431   0.439   0.411   0.437   0.419   0.479   0.449   0.439   0.473   0.451   0.466   0.456   0.452   0.438   0.479   0.455   0.419   0.406   0.416   0.407   0.429   0.411   0.447   0.457   0.448   0.440   0.421   0.406   0.385
   345.10    0.493   0.512   0.527   0.506   0.518   0.480   0.434   0.460   0.456   0.445   0.467   0.464   0.479   0.477   0.463   0.477   0.474   0.415   0.441   0.448   0.466   0.476   0.491   0.450   0.490   0.475   0.502   0.477   0.517   0.545   0.538   0.486   0.471   0.518   0.524   0.581   0.599   0.550   0.528   0.477   0.460   0.469   0.436   0.459   0.425   0.423   0.389   0.415   0.446   0.463   0.461   0.490   0.453   0.470   0.461   0.444   0.467   0.426   0.436   0.429   0.455   0.457   0.469   0.471   0.479   0.464   0.427   0.438   0.443   0.430   0.438   0.431   0.463   0.466   0.442   0.442   0.460   0.450   0.433   0.456   0.447   0.506   0.483   0.504   0.519   0.439   0.474   0.450   0.420   0.431   0.416   0.396   0.390   0.379   0.377   0.397   0.402   0.416   0.412   0.415   0.408   0.448   0.456   0.467   0.465   0.492   0.528   0.533   0.496   0.508   0.487   0.547   0.521   0.529   0.479   0.483   0.511   0.512   0.490   0.506   0.516   0.508   0.512   0.497   0.501   0.477   0.478   0.492   0.511   0.509   0.461   0.442   0.442   0.462   0.427   0.433   0.460   0.467   0.441   0.408   0.415   0.433   0.447   0.439   0.416   0.419   0.426   0.456   0.462   0.491   0.516   0.494   0.457   0.432   0.419   0.448   0.446   0.485   0.461   0.437   0.451   0.424   0.441   0.468   0.455   0.460   0.450   0.442   0.474   0.482   0.485   0.510   0.518   0.505   0.507   0.517   0.509   0.515   0.502   0.453   0.411   0.396   0.403   0.390   0.407   0.428   0.456   0.468   0.468   0.434   0.437   0.417   0.444
   335.80    0.515   0.521   0.540   0.509   0.517   0.478   0.476   0.467   0.460   0.452   0.485   0.495   0.495   0.472   0.451   0.436   0.431   0.404   0.386   0.401   0.436   0.470   0.466   0.474   0.499   0.525   0.452   0.484   0.476   0.488   0.497   0.506   0.501   0.491   0.487   0.546   0.574   0.524   0.547   0.499   0.462   0.429   0.435   0.470   0.437   0.407   0.426   0.461   0.402   0.420   0.459   0.478   0.464   0.476   0.462   0.486   0.475   0.464   0.463   0.454   0.420   0.431   0.474   0.466   0.453   0.429   0.451   0.426   0.458   0.446   0.440   0.432   0.426   0.471   0.469   0.471   0.440   0.435   0.453   0.482   0.503   0.528   0.494   0.526   0.524   0.505   0.456   0.445   0.443   0.424   0.385   0.393   0.417   0.427   0.416   0.411   0.396   0.399   0.406   0.433   0.467   0.445   0.460   0.480   0.495   0.491   0.518   0.487   0.485   0.480   0.519   0.561   0.576   0.539   0.547   0.544   0.495   0.518   0.497   0.501   0.487   0.491   0.492   0.482   0.469   0.478   0.490   0.503   0.487   0.503   0.474   0.464   0.445   0.418   0.415   0.418   0.421   0.437   0.420   0.410   0.415   0.455   0.443   0.410   0.421   0.411   0.424   0.444   0.459   0.497   0.511   0.501   0.472   0.454   0.437   0.443   0.464   0.472   0.471   0.449   0.474   0.442   0.453   0.463   0.444   0.447   0.469   0.461   0.460   0.486   0.504   0.529   0.529   0.518   0.513   0.551   0.552   0.534   0.517   0.449   0.415   0.379   0.374   0.379   0.412   0.421   0.447   0.438   0.433   0.439   0.434   0.415   0.441
   326.50    0.496   0.501   0.507   0.505   0.491   0.491   0.491   0.473   0.462   0.452   0.482   0.459   0.468   0.482   0.474   0.455   0.430   0.396   0.404   0.399   0.424   0.466   0.486   0.490   0.488   0.486   0.494   0.469   0.470   0.491   0.497   0.521   0.473   0.460   0.480   0.519   0.548   0.540   0.517   0.503   0.439   0.426   0.414   0.444   0.401   0.419   0.436   0.457   0.416   0.418   0.455   0.463   0.473   0.463   0.443   0.477   0.501   0.485   0.478   0.453   0.460   0.437   0.462   0.485   0.489   0.456   0.466   0.441   0.457   0.449   0.452   0.435   0.445   0.447   0.475   0.481   0.460   0.463   0.470   0.500   0.522   0.515   0.516   0.504   0.532   0.501   0.471   0.449   0.441   0.439   0.429   0.402   0.428   0.446   0.406   0.404   0.416   0.418   0.413   0.469   0.451   0.471   0.462   0.481   0.501   0.529   0.540   0.526   0.480   0.505   0.537   0.555   0.604   0.585   0.570   0.532   0.524   0.528   0.519   0.506   0.498   0.501   0.495   0.507   0.488   0.460   0.472   0.491   0.473   0.485   0.475   0.472   0.415   0.422   0.424   0.402   0.399   0.412   0.440   0.431   0.428   0.423   0.385   0.408   0.418   0.382   0.411   0.434   0.477   0.487   0.510   0.474   0.451   0.486   0.439   0.450   0.505   0.485   0.477   0.479   0.474   0.468   0.459   0.476   0.497   0.464   0.446   0.466   0.459   0.465   0.500   0.501   0.515   0.529   0.531   0.564   0.547   0.543   0.499   0.487   0.460   0.431   0.408   0.375   0.386   0.426   0.446   0.415   0.425   0.444   0.431   0.448   0.438
   317.20    0.477   0.494   0.488   0.504   0.473   0.449   0.474   0.463   0.475   0.472   0.466   0.464   0.491   0.482   0.447   0.441   0.446   0.396   0.404   0.399   0.435   0.476   0.497   0.479   0.466   0.466   0.471   0.460   0.447   0.430   0.455   0.463   0.466   0.485   0.517   0.511   0.536   0.543   0.496   0.476   0.449   0.419   0.416   0.427   0.427   0.462   0.461   0.469   0.435   0.452   0.443   0.468   0.446   0.452   0.457   0.472   0.493   0.466   0.487   0.482   0.499   0.446   0.472   0.465   0.482   0.448   0.469   0.463   0.478   0.436   0.453   0.449   0.425   0.442   0.448   0.487   0.472   0.482   0.478   0.479   0.497   0.537   0.513   0.523   0.476   0.512   0.514   0.488   0.478   0.468   0.449   0.437   0.417   0.418   0.400   0.388   0.400   0.409   0.405   0.403   0.434   0.459   0.467   0.492   0.518   0.546   0.600   0.613   0.523   0.551   0.555   0.547   0.577   0.594   0.557   0.556   0.526   0.534   0.495   0.527   0.527   0.503   0.520   0.485   0.468   0.458   0.475   0.477   0.487   0.486   0.464   0.445   0.413   0.411   0.415   0.399   0.428   0.421   0.422   0.425   0.402   0.433   0.411   0.414   0.432   0.424   0.413   0.459   0.487   0.512   0.516   0.492   0.498   0.474   0.451   0.481   0.496   0.515   0.510   0.534   0.538   0.528   0.519   0.477   0.486   0.481   0.440   0.480   0.449   0.444   0.468   0.507   0.536   0.531   0.534   0.533   0.553   0.541   0.486   0.494   0.457   0.424   0.423   0.432   0.426   0.440   0.433   0.420   0.414   0.427   0.426   0.413   0.429
   307.90    0.497   0.460   0.490   0.477   0.454   0.436   0.449   0.438   0.460   0.460   0.460   0.474   0.476   0.457   0.439   0.429   0.407   0.406   0.396   0.404   0.439   0.457   0.486   0.491   0.470   0.493   0.459   0.458   0.441   0.419   0.438   0.442   0.480   0.488   0.504   0.496   0.517   0.544   0.518   0.488   0.447   0.441   0.420   0.439   0.446   0.487   0.467   0.437   0.444   0.426   0.396   0.436   0.459   0.484   0.446   0.483   0.497   0.459   0.495   0.500   0.488   0.507   0.483   0.460   0.468   0.437   0.423   0.451   0.454   0.438   0.477   0.477   0.453   0.492   0.505   0.494   0.493   0.479   0.466   0.488   0.482   0.493   0.526   0.548   0.511   0.538   0.550   0.491   0.478   0.474   0.462   0.437   0.411   0.396   0.395   0.405   0.410   0.379   0.416   0.437   0.455   0.461   0.509   0.507   0.543   0.535   0.600   0.602   0.543   0.561   0.533   0.562   0.613   0.606   0.583   0.580   0.565   0.521   0.494   0.485   0.476   0.512   0.516   0.512   0.505   0.495   0.492   0.475   0.488   0.491   0.483   0.443   0.463   0.442   0.402   0.391   0.383   0.414   0.403   0.403   0.403   0.398   0.401   0.424   0.429   0.433   0.415   0.442   0.498   0.521   0.536   0.509   0.519   0.503   0.522   0.502   0.479   0.501   0.507   0.540   0.544   0.526   0.521   0.487   0.492   0.454   0.470   0.480   0.495   0.479   0.486   0.481   0.503   0.516   0.518   0.513   0.545   0.519   0.506   0.469   0.449   0.440   0.462   0.460   0.431   0.419   0.415   0.409   0.406   0.392   0.393   0.405   0.435
   298.60    0.509   0.488   0.459   0.475   0.427   0.431   0.452   0.467   0.481   0.480   0.452   0.427   0.436   0.437   0.426   0.412   0.401   0.405   0.411   0.436   0.421   0.438   0.442   0.470   0.491   0.512   0.453   0.443   0.431   0.438   0.425   0.435   0.474   0.491   0.503   0.493   0.516   0.541   0.506   0.483   0.477   0.453   0.442   0.447   0.456   0.475   0.502   0.460   0.460   0.418   0.402   0.425   0.467   0.462   0.470   0.477   0.477   0.505   0.499   0.478   0.492   0.491   0.487   0.449   0.415   0.428   0.459   0.445   0.452   0.495   0.498   0.484   0.492   0.498   0.523   0.535   0.488   0.482   0.455   0.482   0.500   0.508   0.529   0.559   0.533   0.537   0.574   0.532   0.484   0.440   0.432   0.434   0.422   0.415   0.433   0.439   0.421   0.413   0.429   0.425   0.461   0.465   0.517   0.529   0.519   0.521   0.525   0.555   0.569   0.538   0.559   0.592   0.640   0.606   0.608   0.605   0.581   0.564   0.531   0.475   0.501   0.518   0.540   0.520   0.530   0.503   0.485   0.490   0.500   0.493   0.483   0.449   0.471   0.454   0.420   0.398   0.409   0.414   0.418   0.442   0.385   0.391   0.413   0.411   0.431   0.414   0.449   0.424   0.502   0.534   0.524   0.514   0.519   0.535   0.509   0.503   0.476   0.525   0.557   0.539   0.570   0.538   0.550   0.525   0.473   0.479   0.461   0.475   0.495   0.500   0.486   0.513   0.490   0.477   0.499   0.501   0.547   0.541   0.534   0.513   0.455   0.459   0.472   0.462   0.444   0.454   0.436   0.410   0.411   0.396   0.434   0.416   0.453
   289.30    0.476   0.460   0.470   0.451   0.438   0.460   0.425   0.444   0.458   0.477   0.472   0.449   0.453   0.453   0.426   0.419   0.400   0.415   0.400   0.426   0.446   0.442   0.452   0.459   0.472   0.493   0.461   0.477   0.463   0.447   0.483   0.464   0.464   0.511   0.497   0.501   0.518   0.520   0.521   0.492   0.465   0.463   0.460   0.453   0.463   0.466   0.459   0.471   0.445   0.439   0.421   0.390   0.415   0.464   0.481   0.468   0.483   0.513   0.509   0.500   0.514   0.495   0.513   0.476   0.436   0.411   0.433   0.436   0.456   0.464   0.483   0.482   0.486   0.497   0.519   0.526   0.526   0.501   0.480   0.490   0.525   0.546   0.523   0.496   0.509   0.537   0.554   0.499   0.484   0.450   0.450   0.448   0.423   0.475   0.454   0.450   0.458   0.472   0.460   0.454   0.466   0.501   0.516   0.548   0.533   0.540   0.547   0.534   0.547   0.581   0.583   0.598   0.633   0.629   0.627   0.606   0.578   0.535   0.524   0.465   0.489   0.465   0.490   0.501   0.501   0.506   0.497   0.466   0.515   0.484   0.478   0.468   0.435   0.445   0.436   0.418   0.411   0.418   0.425   0.441   0.414   0.395   0.419   0.422   0.422   0.424   0.420   0.441   0.475   0.495   0.519   0.514   0.537   0.532   0.513   0.529   0.527   0.544   0.566   0.532   0.539   0.552   0.536   0.496   0.473   0.449   0.465   0.483   0.485   0.515   0.497   0.513   0.503   0.486   0.490   0.516   0.524   0.525   0.502   0.503   0.473   0.492   0.470   0.484   0.441   0.451   0.448   0.427   0.401   0.418   0.439   0.401   0.410
   280.00    0.478   0.483   0.474   0.444   0.454   0.453   0.451   0.457   0.473   0.512   0.480   0.467   0.452   0.480   0.476   0.453   0.413   0.422   0.434   0.461   0.446   0.463   0.494   0.476   0.460   0.497   0.502   0.477   0.503   0.507   0.506   0.491   0.466   0.498   0.487   0.491   0.491   0.496   0.467   0.491   0.506   0.475   0.466   0.455   0.463   0.468   0.415   0.417   0.438   0.425   0.410   0.402   0.427   0.471   0.488   0.473   0.499   0.488   0.499   0.521   0.511   0.492   0.499   0.441   0.453   0.441   0.448   0.442   0.472   0.437   0.473   0.515   0.523   0.525   0.544   0.535   0.521   0.516   0.492   0.511   0.573   0.597   0.547   0.528   0.526   0.527   0.531   0.488   0.491   0.471   0.444   0.453   0.440   0.495   0.492   0.522   0.510   0.483   0.450   0.500   0.518   0.513   0.504   0.514   0.519   0.499   0.515   0.532   0.550   0.549   0.541   0.583   0.623   0.603   0.632   0.616   0.579   0.567   0.509   0.494   0.508   0.501   0.486   0.470   0.477   0.492   0.506   0.486   0.509   0.506   0.495   0.450   0.445   0.456   0.430   0.476   0.457   0.468   0.438   0.434   0.389   0.401   0.403   0.421   0.440   0.410   0.439   0.404   0.423   0.433   0.471   0.482   0.494   0.525   0.526   0.552   0.525   0.526   0.579   0.560   0.516   0.511   0.524   0.503   0.451   0.466   0.493   0.486   0.474   0.493   0.467   0.455   0.486   0.492   0.492   0.485   0.516   0.495   0.514   0.502   0.490   0.494   0.448   0.451   0.454   0.438   0.438   0.461   0.455   0.425   0.435   0.431   0.431
   270.70    0.444   0.446   0.447   0.464   0.484   0.496   0.463   0.468   0.483   0.506   0.492   0.467   0.473   0.503   0.457   0.454   0.439   0.438   0.421   0.424   0.438   0.453   0.509   0.493   0.491   0.494   0.510   0.515   0.489   0.493   0.526   0.503   0.475   0.468   0.466   0.466   0.478   0.491   0.501   0.499   0.493   0.450   0.479   0.461   0.429   0.415   0.393   0.418   0.426   0.447   0.429   0.417   0.436   0.457   0.487   0.495   0.476   0.493   0.503   0.526   0.512   0.502   0.458   0.438   0.474   0.470   0.497   0.463   0.472   0.467   0.447   0.516   0.518   0.531   0.557   0.557   0.564   0.524   0.519   0.547   0.572   0.555   0.569   0.560   0.494   0.524   0.545   0.534   0.534   0.510   0.504   0.444   0.445   0.488   0.534   0.518   0.523   0.518   0.509   0.510   0.520   0.484   0.477   0.493   0.511   0.510   0.536   0.540   0.566   0.584   0.603   0.580   0.571   0.581   0.599   0.616   0.609   0.564   0.504   0.507   0.512   0.524   0.523   0.488   0.467   0.457   0.473   0.480   0.492   0.469   0.470   0.480   0.448   0.447   0.459   0.503   0.531   0.504   0.468   0.453   0.413   0.427   0.414   0.459   0.467   0.469   0.444   0.431   0.427   0.438   0.462   0.473   0.489   0.554   0.567   0.578   0.532   0.540   0.576   0.591   0.539   0.539   0.517   0.482   0.450   0.477   0.460   0.440   0.473   0.488   0.450   0.484   0.472   0.503   0.506   0.521   0.517   0.506   0.516   0.508   0.510   0.489   0.469   0.463   0.435   0.430   0.461   0.471   0.480   0.462   0.420   0.439   0.455
   261.40    0.421   0.409   0.418   0.465   0.499   0.507   0.468   0.488   0.480   0.487   0.492   0.506   0.480   0.467   0.463   0.452   0.431   0.438   0.424   0.432   0.426   0.428   0.499   0.471   0.480   0.503   0.513   0.500   0.481   0.503   0.505   0.484   0.444   0.492   0.472   0.456   0.462   0.481   0.488   0.491   0.469   0.456   0.446   0.445   0.468   0.433   0.447   0.423   0.419   0.418   0.388   0.390   0.399   0.435   0.454   0.472   0.487   0.480   0.458   0.508   0.482   0.479   0.480   0.488   0.501   0.508   0.505   0.486   0.500   0.481   0.494   0.499   0.511   0.522   0.538   0.524   0.546   0.497   0.532   0.544   0.583   0.597   0.557   0.538   0.525   0.557   0.543   0.546   0.537   0.509   0.472   0.482   0.485   0.519   0.547   0.552   0.562   0.515   0.486   0.485   0.480   0.478   0.501   0.507   0.515   0.506   0.533   0.551   0.600   0.602   0.581   0.577   0.583   0.599   0.592   0.618   0.603   0.571   0.551   0.524   0.529   0.531   0.533   0.507   0.462   0.482   0.465   0.444   0.435   0.426   0.471   0.490   0.461   0.443   0.490   0.523   0.523   0.502   0.486   0.464   0.409   0.412   0.450   0.472   0.492   0.458   0.437   0.456   0.457   0.446   0.453   0.467   0.500   0.550   0.573   0.563   0.557   0.532   0.573   0.574   0.526   0.516   0.536   0.519   0.509   0.473   0.448   0.456   0.474   0.477   0.464   0.500   0.476   0.510   0.501   0.521   0.503   0.499   0.504   0.516   0.496   0.468   0.456   0.448   0.430   0.434   0.447   0.435   0.446   0.436   0.441   0.433   0.448
   252.10    0.393   0.379   0.400   0.442   0.481   0.482   0.507   0.493   0.486   0.471   0.501   0.473   0.484   0.467   0.428   0.435   0.426   0.418   0.438   0.410   0.435   0.435   0.464   0.453   0.441   0.490   0.511   0.458   0.471   0.468   0.446   0.466   0.458   0.484   0.455   0.435   0.451   0.478   0.480   0.491   0.465   0.449   0.473   0.478   0.476   0.446   0.465   0.454   0.452   0.460   0.424   0.394   0.440   0.467   0.471   0.444   0.452   0.462   0.462   0.477   0.487   0.486   0.502   0.521   0.528   0.523   0.497   0.494   0.526   0.511   0.502   0.522   0.535   0.496   0.516   0.524   0.533   0.516   0.487   0.504   0.563   0.541   0.555   0.557   0.539   0.546   0.522   0.541   0.520   0.483   0.522   0.493   0.508   0.542   0.540   0.512   0.512   0.524   0.490   0.502   0.497   0.497   0.493   0.507   0.504   0.536   0.522   0.528   0.567   0.606   0.565   0.584   0.599   0.612   0.607   0.608   0.570   0.579   0.570   0.584   0.565   0.525   0.532   0.488   0.505   0.492   0.479   0.487   0.446   0.418   0.430   0.460   0.461   0.453   0.505   0.500   0.501   0.510   0.492   0.471   0.436   0.451   0.454   0.479   0.474   0.472   0.458   0.490   0.468   0.465   0.447   0.474   0.477   0.539   0.571   0.549   0.572   0.570   0.569   0.565   0.549   0.536   0.533   0.528   0.479   0.420   0.476   0.472   0.470   0.485   0.475   0.474   0.458   0.485   0.506   0.515   0.504   0.514   0.515   0.507   0.496   0.457   0.493   0.449   0.429   0.413   0.407   0.446   0.466   0.456   0.421   0.407   0.415
   242.80    0.432   0.423   0.424   0.422   0.456   0.492   0.516   0.489   0.488   0.518   0.505   0.495   0.495   0.455   0.435   0.417   0.410   0.397   0.402   0.420   0.434   0.424   0.435   0.445   0.456   0.481   0.509   0.460   0.450   0.457   0.441   0.383   0.402   0.438   0.416   0.433   0.436   0.440   0.477   0.462   0.442   0.440   0.477   0.468   0.445   0.465   0.467   0.423   0.450   0.463   0.434   0.409   0.438   0.482   0.466   0.482   0.466   0.465   0.460   0.473   0.472   0.473   0.502   0.542   0.531   0.529   0.531   0.534   0.543   0.552   0.521   0.533   0.543   0.537   0.537   0.527   0.505   0.492   0.518   0.521   0.566   0.537   0.525   0.536   0.534   0.554   0.546   0.543   0.504   0.528   0.513   0.492   0.525   0.538   0.512   0.497   0.513   0.486   0.472   0.463   0.521   0.499   0.485   0.518   0.499   0.524   0.532   0.519   0.560   0.596   0.586   0.597   0.607   0.579   0.615   0.629   0.595   0.582   0.597   0.580   0.566   0.540   0.535   0.521   0.518   0.499   0.483   0.450   0.428   0.455   0.457   0.444   0.462   0.473   0.513   0.517   0.500   0.504   0.475   0.451   0.449   0.480   0.464   0.461   0.476   0.426   0.451   0.458   0.472   0.442   0.447   0.472   0.475   0.520   0.540   0.546   0.540   0.545   0.575   0.574   0.522   0.531   0.549   0.515   0.459   0.458   0.458   0.492   0.504   0.514   0.493   0.505   0.467   0.489   0.494   0.533   0.516   0.507   0.503   0.495   0.479   0.474   0.463   0.465   0.442   0.416   0.439   0.442   0.459   0.454   0.454   0.416   0.423
   233.50    0.429   0.413   0.435   0.424   0.456   0.476   0.485   0.455   0.455   0.496   0.509   0.502   0.451   0.453   0.431   0.414   0.394   0.365   0.406   0.436   0.422   0.409   0.451   0.418   0.424   0.458   0.493   0.450   0.440   0.464   0.466   0.394   0.379   0.391   0.404   0.423   0.427   0.466   0.442   0.460   0.491   0.452   0.468   0.498   0.433   0.450   0.457   0.429   0.436   0.447   0.438   0.465   0.471   0.517   0.506   0.492   0.496   0.500   0.500   0.511   0.508   0.518   0.530   0.532   0.521   0.558   0.558   0.547   0.576   0.586   0.564   0.525   0.525   0.582   0.526   0.535   0.527   0.529   0.560   0.577   0.541   0.578   0.552   0.586   0.545   0.557   0.513   0.541   0.545   0.540   0.538   0.528   0.550   0.555   0.536   0.539   0.505   0.481   0.506   0.502   0.503   0.508   0.520   0.550   0.537   0.525   0.530   0.527   0.574   0.605   0.558   0.572   0.590   0.604   0.609   0.632   0.603   0.579   0.563   0.565   0.557   0.546   0.543   0.531   0.490   0.479   0.458   0.459   0.434   0.443   0.467   0.445   0.457   0.484   0.517   0.506   0.541   0.529   0.527   0.491   0.496   0.498   0.461   0.447   0.454   0.434   0.438   0.447   0.443   0.445   0.410   0.452   0.482   0.462   0.495   0.497   0.509   0.526   0.542   0.558   0.548   0.548   0.578   0.518   0.515   0.446   0.452   0.514   0.515   0.519   0.545   0.506   0.491   0.516   0.513   0.522   0.519   0.509   0.489   0.463   0.490   0.475   0.458   0.448   0.442   0.436   0.426   0.445   0.470   0.457   0.465   0.464   0.438
   224.20    0.425   0.416   0.433   0.428   0.459   0.487   0.490   0.509   0.481   0.486   0.479   0.516   0.454   0.443   0.448   0.379   0.404   0.411   0.442   0.440   0.415   0.431   0.422   0.423   0.411   0.460   0.469   0.469   0.435   0.425   0.420   0.401   0.401   0.384   0.395   0.426   0.414   0.453   0.465   0.471   0.507   0.459   0.449   0.448   0.421   0.452   0.443   0.427   0.443   0.475   0.476   0.493   0.504   0.507   0.509   0.520   0.500   0.507   0.488   0.489   0.511   0.522   0.516   0.535   0.564   0.565   0.562   0.549   0.542   0.580   0.542   0.535   0.504   0.542   0.561   0.560   0.556   0.548   0.573   0.590   0.585   0.581   0.558   0.591   0.627   0.560   0.547   0.545   0.555   0.526   0.519   0.514   0.526   0.565   0.565   0.566   0.542   0.508   0.535   0.535   0.554   0.561   0.580   0.573   0.551   0.522   0.544   0.561   0.568   0.585   0.547   0.519   0.545   0.555   0.598   0.595   0.555   0.544   0.564   0.552   0.556   0.549   0.501   0.501   0.511   0.509   0.473   0.453   0.458   0.472   0.469   0.463   0.493   0.505   0.511   0.515   0.547   0.536   0.555   0.521   0.516   0.471   0.475   0.475   0.466   0.495   0.458   0.453   0.428   0.459   0.480   0.465   0.489   0.447   0.455   0.493   0.498   0.521   0.539   0.537   0.554   0.514   0.534   0.557   0.525   0.450   0.473   0.520   0.519   0.512   0.529   0.539   0.543   0.535   0.522   0.507   0.544   0.536   0.486   0.480   0.476   0.472   0.471   0.443   0.466   0.475   0.460   0.477   0.472   0.470   0.462   0.447   0.439
   214.90    0.453   0.423   0.432   0.447   0.455   0.476   0.525   0.512   0.496   0.487   0.517   0.499   0.485   0.471   0.467   0.411   0.427   0.400   0.428   0.415   0.404   0.417   0.465   0.464   0.443   0.422   0.462   0.419   0.437   0.460   0.418   0.395   0.408   0.403   0.440   0.416   0.437   0.461   0.453   0.476   0.506   0.495   0.490   0.468   0.455   0.421   0.484   0.469   0.476   0.475   0.479   0.451   0.482   0.505   0.503   0.510   0.495   0.508   0.494   0.500   0.532   0.545   0.506   0.540   0.541   0.540   0.536   0.578   0.559   0.560   0.546   0.549   0.565   0.551   0.588   0.586   0.595   0.571   0.612   0.600   0.617   0.613   0.567   0.536   0.578   0.599   0.559   0.548   0.543   0.546   0.517   0.493   0.535   0.551   0.553   0.578   0.552   0.559   0.545   0.549   0.565   0.604   0.594   0.565   0.561   0.548   0.537   0.537   0.555   0.578   0.547   0.539   0.521   0.549   0.545   0.582   0.553   0.555   0.548   0.518   0.546   0.568   0.498   0.459   0.496   0.487   0.463   0.446   0.495   0.500   0.446   0.474   0.490   0.483   0.506   0.516   0.529   0.534   0.526   0.515   0.536   0.476   0.494   0.515   0.516   0.505   0.528   0.473   0.443   0.447   0.460   0.466   0.483   0.458   0.468   0.479   0.503   0.511   0.522   0.542   0.505   0.541   0.557   0.519   0.507   0.469   0.492   0.498   0.540   0.491   0.512   0.530   0.536   0.526   0.521   0.538   0.566   0.526   0.498   0.463   0.472   0.460   0.474   0.456   0.464   0.459   0.443   0.460   0.463   0.452   0.424   0.424   0.426
   205.60    0.456   0.438   0.460   0.447   0.503   0.478   0.514   0.550   0.532   0.504   0.564   0.511   0.478   0.469   0.449   0.417   0.427   0.406   0.429   0.426   0.439   0.485   0.491   0.509   0.461   0.435   0.459   0.444   0.417   0.425   0.428   0.405   0.414   0.429   0.419   0.420   0.463   0.470   0.494   0.492   0.511   0.505   0.518   0.501   0.456   0.450   0.473   0.494   0.476   0.452   0.453   0.476   0.482   0.512   0.505   0.504   0.475   0.489   0.507   0.499   0.536   0.517   0.514   0.530   0.523   0.547   0.535   0.558   0.561   0.561   0.560   0.585   0.621   0.607   0.645   0.629   0.607   0.589   0.591   0.563   0.585   0.579   0.533   0.555   0.542   0.562   0.587   0.547   0.544   0.563   0.556   0.508   0.536   0.544   0.511   0.542   0.532   0.546   0.568   0.570   0.581   0.589   0.601   0.575   0.574   0.606   0.597   0.555   0.594   0.547   0.538   0.541   0.517   0.493   0.511   0.560   0.527   0.528   0.523   0.509   0.536   0.525   0.487   0.473   0.479   0.470   0.458   0.448   0.444   0.473   0.477   0.483   0.499   0.520   0.503   0.544   0.514   0.498   0.503   0.505   0.494   0.511   0.516   0.529   0.532   0.526   0.535   0.514   0.461   0.456   0.472   0.460   0.445   0.458   0.491   0.488   0.449   0.470   0.472   0.481   0.511   0.519   0.549   0.548   0.498   0.467   0.468   0.510   0.498   0.505   0.516   0.520   0.535   0.525   0.548   0.535   0.523   0.523   0.522   0.486   0.493   0.451   0.438   0.443   0.437   0.427   0.423   0.461   0.424   0.409   0.437   0.449   0.437
   196.30    0.439   0.450   0.474   0.491   0.505   0.533   0.568   0.581   0.574   0.551   0.551   0.517   0.463   0.442   0.443   0.435   0.414   0.421   0.435   0.451   0.469   0.496   0.506   0.511   0.479   0.468   0.450   0.439   0.429   0.450   0.409   0.434   0.424   0.429   0.444   0.432   0.461   0.447   0.459   0.465   0.464   0.483   0.482   0.487   0.470   0.481   0.484   0.466   0.465   0.433   0.421   0.446   0.450   0.506   0.507   0.484   0.471   0.462   0.479   0.521   0.501   0.489   0.504   0.501   0.513   0.548   0.569   0.583   0.579   0.593   0.599   0.640   0.679   0.647   0.651   0.611   0.609   0.579   0.548   0.526   0.568   0.576   0.586   0.557   0.578   0.578   0.616   0.572   0.573   0.525   0.537   0.508   0.530   0.535   0.524   0.517   0.518   0.520   0.565   0.600   0.615   0.616   0.574   0.557   0.569   0.577   0.600   0.558   0.559   0.578   0.551   0.543   0.511   0.503   0.538   0.549   0.483   0.514   0.546   0.512   0.496   0.492   0.473   0.458   0.463   0.480   0.461   0.437   0.464   0.441   0.474   0.497   0.522   0.522   0.538   0.568   0.550   0.503   0.542   0.524   0.530   0.567   0.558   0.539   0.559   0.561   0.552   0.496   0.496   0.475   0.491   0.495   0.488   0.507   0.520   0.509   0.457   0.459   0.425   0.415   0.463   0.484   0.503   0.518   0.490   0.484   0.453   0.500   0.492   0.504   0.525   0.534   0.534   0.529   0.550   0.539   0.508   0.540   0.509   0.522   0.438   0.431   0.445   0.421   0.415   0.426   0.445   0.446   0.433   0.438   0.446   0.444   0.460
   187.00    0.453   0.461   0.498   0.508   0.533   0.588   0.612   0.628   0.575   0.532   0.523   0.544   0.500   0.445   0.414   0.384   0.404   0.442   0.446   0.440   0.468   0.488   0.491   0.504   0.471   0.455   0.433   0.471   0.483   0.457   0.430   0.447   0.445   0.439   0.435   0.438   0.421   0.446   0.446   0.438   0.438   0.461   0.493   0.507   0.455   0.450   0.489   0.444   0.454   0.449   0.420   0.447   0.503   0.500   0.501   0.503   0.493   0.484   0.499   0.501   0.492   0.485   0.507   0.507   0.531   0.562   0.578   0.575   0.576   0.604   0.652   0.643   0.640   0.647   0.632   0.578   0.560   0.575   0.569   0.573   0.558   0.579   0.577   0.570   0.541   0.573   0.579   0.576   0.559   0.552   0.534   0.540   0.512   0.521   0.500   0.524   0.536   0.560   0.573   0.596   0.598   0.581   0.566   0.558   0.595   0.571   0.564   0.574   0.506   0.551   0.562   0.516   0.514   0.542   0.522   0.496   0.482   0.516   0.550   0.506   0.506   0.513   0.477   0.477   0.474   0.464   0.472   0.461   0.430   0.437   0.471   0.506   0.493   0.489   0.518   0.546   0.581   0.569   0.527   0.522   0.535   0.561   0.566   0.544   0.540   0.552   0.556   0.512   0.535   0.510   0.493   0.489   0.491   0.512   0.517   0.483   0.473   0.432   0.394   0.408   0.406   0.461   0.500   0.505   0.498   0.460   0.485   0.503   0.513   0.523   0.521   0.543   0.516   0.504   0.505   0.549   0.505   0.521   0.513   0.498   0.441   0.446   0.442   0.428   0.424   0.456   0.423   0.429   0.413   0.412   0.426   0.444   0.471
   177.70    0.416   0.477   0.527   0.497   0.544   0.551   0.568   0.603   0.585   0.533   0.530   0.515   0.492   0.436   0.409   0.391   0.405   0.444   0.446   0.463   0.471   0.465   0.497   0.490   0.468   0.468   0.455   0.450   0.464   0.441   0.447   0.428   0.441   0.434   0.412   0.437   0.423   0.431   0.435   0.422   0.455   0.478   0.465   0.438   0.431   0.468   0.486   0.462   0.441   0.492   0.459   0.469   0.488   0.520   0.492   0.529   0.508   0.484   0.489   0.509   0.478   0.481   0.515   0.546   0.548   0.562   0.538   0.547   0.538   0.589   0.605   0.611   0.627   0.618   0.586   0.542   0.562   0.594   0.576   0.557   0.529   0.555   0.567   0.550   0.559   0.553   0.548   0.551   0.540   0.543   0.522   0.520   0.511   0.535   0.558   0.545   0.530   0.565   0.611   0.552   0.556   0.550   0.556   0.600   0.591   0.572   0.558   0.561   0.498   0.560   0.575   0.544   0.497   0.506   0.493   0.509   0.470   0.496   0.521   0.528   0.471   0.465   0.460   0.464   0.466   0.483   0.485   0.483   0.452   0.472   0.465   0.487   0.513   0.517   0.529   0.541   0.553   0.551   0.511   0.526   0.534   0.527   0.558   0.547   0.535   0.543   0.522   0.533   0.540   0.498   0.483   0.512   0.478   0.496   0.492   0.485   0.476   0.446   0.392   0.398   0.431   0.430   0.444   0.487   0.459   0.443   0.460   0.501   0.494   0.534   0.520   0.547   0.511   0.517   0.507   0.531   0.532   0.517   0.555   0.509   0.477   0.461   0.467   0.462   0.459   0.421   0.437   0.421   0.399   0.427   0.445   0.429   0.474
   168.40    0.424   0.481   0.508   0.492   0.485   0.520   0.518   0.541   0.548   0.510   0.503   0.483   0.452   0.453   0.438   0.400   0.404   0.464   0.454   0.453   0.486   0.483   0.484   0.510   0.496   0.479   0.440   0.467   0.450   0.440   0.417   0.431   0.443   0.437   0.453   0.418   0.432   0.427   0.413   0.437   0.454   0.473   0.449   0.423   0.462   0.436   0.490   0.464   0.500   0.490   0.467   0.501   0.532   0.512   0.529   0.508   0.498   0.494   0.502   0.497   0.478   0.488   0.492   0.520   0.535   0.559   0.509   0.549   0.543   0.565   0.609   0.596   0.606   0.600   0.586   0.587   0.561   0.566   0.570   0.576   0.551   0.552   0.523   0.547   0.537   0.507   0.534   0.533   0.526   0.559   0.529   0.538   0.542   0.539   0.567   0.552   0.521   0.562   0.574   0.551   0.528   0.531   0.562   0.538   0.572   0.565   0.571   0.531   0.526   0.557   0.584   0.559   0.523   0.515   0.515   0.490   0.491   0.486   0.488   0.483   0.482   0.459   0.480   0.486   0.446   0.491   0.490   0.492   0.464   0.473   0.486   0.495   0.482   0.473   0.520   0.546   0.512   0.510   0.519   0.520   0.504   0.521   0.550   0.547   0.541   0.493   0.493   0.526   0.534   0.528   0.520   0.491   0.504   0.471   0.473   0.462   0.483   0.447   0.450   0.414   0.433   0.436   0.447   0.462   0.483   0.441   0.461   0.501   0.536   0.536   0.520   0.533   0.531   0.501   0.531   0.521   0.530   0.535   0.518   0.519   0.490   0.471   0.491   0.457   0.444   0.423   0.413   0.427   0.398   0.432   0.434   0.439   0.478
   159.10    0.432   0.486   0.491   0.508   0.519   0.535   0.523   0.530   0.525   0.504   0.518   0.504   0.452   0.437   0.445   0.431   0.422   0.464   0.445   0.449   0.464   0.503   0.497   0.489   0.537   0.507   0.453   0.436   0.449   0.441   0.433   0.434   0.443   0.435   0.459   0.435   0.435   0.443   0.397   0.414   0.432   0.449   0.455   0.422   0.420   0.422   0.444   0.472   0.486   0.473   0.493   0.503   0.511   0.489   0.493   0.460   0.470   0.485   0.485   0.471   0.494   0.487   0.485   0.526   0.536   0.539   0.540   0.537   0.564   0.561   0.581   0.614   0.607   0.604   0.624   0.579   0.579   0.527   0.515   0.526   0.512   0.486   0.515   0.526   0.569   0.564   0.516   0.522   0.524   0.527   0.525   0.556   0.556   0.550   0.547   0.568   0.545   0.524   0.500   0.506   0.502   0.488   0.538   0.556   0.562   0.556   0.535   0.542   0.548   0.587   0.553   0.532   0.510   0.518   0.512   0.473   0.471   0.465   0.497   0.464   0.459   0.445   0.473   0.473   0.489   0.503   0.484   0.479   0.461   0.463   0.482   0.470   0.482   0.506   0.535   0.545   0.547   0.494   0.466   0.504   0.495   0.502   0.478   0.519   0.530   0.504   0.515   0.561   0.528   0.508   0.497   0.491   0.480   0.495   0.474   0.497   0.497   0.467   0.457   0.448   0.437   0.430   0.476   0.464   0.476   0.512   0.509   0.516   0.554   0.569   0.558   0.559   0.537   0.541   0.560   0.586   0.539   0.523   0.500   0.477   0.441   0.428   0.481   0.458   0.456   0.426   0.419   0.401   0.388   0.436   0.441   0.454   0.479
   149.80    0.408   0.469   0.460   0.476   0.516   0.555   0.545   0.529   0.519   0.552   0.515   0.520   0.479   0.422   0.428   0.423   0.409   0.434   0.424   0.431   0.469   0.505   0.475   0.480   0.518   0.530   0.489   0.471   0.444   0.463   0.442   0.443   0.455   0.421   0.462   0.431   0.424   0.438   0.396   0.411   0.418   0.420   0.412   0.424   0.419   0.433   0.430   0.456   0.471   0.483   0.495   0.516   0.505   0.530   0.505   0.462   0.469   0.472   0.467   0.477   0.493   0.486   0.486   0.468   0.497   0.512   0.516   0.574   0.596   0.568   0.595   0.587   0.582   0.594   0.576   0.569   0.562   0.526   0.506   0.482   0.504   0.477   0.505   0.491   0.544   0.541   0.531   0.542   0.537   0.542   0.562   0.553   0.583   0.549   0.532   0.549   0.503   0.508   0.490   0.529   0.509   0.521   0.527   0.547   0.524   0.549   0.565   0.552   0.567   0.548   0.575   0.538   0.509   0.547   0.515   0.485   0.478   0.486   0.507   0.452   0.461   0.435   0.473   0.490   0.510   0.513   0.486   0.500   0.488   0.499   0.483   0.481   0.492   0.486   0.508   0.538   0.522   0.508   0.488   0.477   0.505   0.511   0.497   0.538   0.516   0.528   0.507   0.537   0.551   0.580   0.539   0.497   0.517   0.509   0.511   0.505   0.518   0.473   0.487   0.528   0.475   0.457   0.451   0.482   0.464   0.530   0.556   0.558   0.569   0.575   0.584   0.593   0.568   0.514   0.522   0.564   0.545   0.480   0.479   0.470   0.428   0.440   0.454   0.450   0.430   0.421   0.429   0.393   0.432   0.451   0.457   0.462   0.495
   140.50    0.430   0.469   0.479   0.515   0.527   0.508   0.542   0.532   0.520   0.525   0.489   0.481   0.442   0.424   0.424   0.427   0.448   0.421   0.382   0.385   0.435   0.482   0.482   0.475   0.549   0.533   0.504   0.466   0.450   0.443   0.436   0.435   0.439   0.439   0.465   0.493   0.494   0.465   0.414   0.394   0.433   0.427   0.417   0.434   0.433   0.441   0.430   0.454   0.493   0.490   0.509   0.491   0.492   0.514   0.517   0.500   0.479   0.471   0.478   0.502   0.499   0.485   0.478   0.474   0.495   0.492   0.526   0.587   0.589   0.586   0.548   0.585   0.579   0.562   0.531   0.514   0.540   0.524   0.523   0.491   0.469   0.460   0.459   0.466   0.504   0.514   0.543   0.525   0.546   0.560   0.540   0.534   0.594   0.575   0.559   0.553   0.531   0.495   0.498   0.502   0.533   0.526   0.547   0.565   0.531   0.542   0.557   0.582   0.564   0.566   0.565   0.550   0.509   0.545   0.540   0.530   0.497   0.507   0.466   0.447   0.467   0.502   0.503   0.529   0.476   0.494   0.505   0.510   0.505   0.468   0.472   0.483   0.476   0.481   0.518   0.511   0.487   0.470   0.498   0.496   0.495   0.503   0.508   0.502   0.500   0.514   0.526   0.523   0.564   0.580   0.597   0.523   0.523   0.528   0.564   0.544   0.540   0.507   0.504   0.484   0.474   0.487   0.435   0.446   0.500   0.510   0.517   0.536   0.550   0.555   0.614   0.607   0.571   0.527   0.517   0.518   0.520   0.488   0.474   0.439   0.466   0.456   0.477   0.478   0.439   0.424   0.441   0.431   0.437   0.466   0.492   0.499   0.494
   131.20    0.419   0.438   0.478   0.506   0.530   0.536   0.543   0.502   0.519   0.496   0.494   0.472   0.437   0.419   0.466   0.462   0.449   0.419   0.416   0.424   0.417   0.458   0.465   0.463   0.510   0.472   0.471   0.456   0.438   0.459   0.468   0.483   0.464   0.430   0.458   0.491   0.492   0.452   0.436   0.405   0.426   0.394   0.409   0.410   0.420   0.471   0.457   0.492   0.512   0.502   0.477   0.511   0.515   0.519   0.551   0.505   0.491   0.472   0.475   0.506   0.530   0.492   0.506   0.505   0.515   0.486   0.524   0.563   0.608   0.583   0.558   0.548   0.540   0.489   0.500   0.512   0.527   0.574   0.548   0.492   0.485   0.480   0.451   0.466   0.512   0.496   0.508   0.527   0.551   0.559   0.549   0.541   0.519   0.546   0.517   0.519   0.529   0.482   0.457   0.473   0.483   0.482   0.534   0.576   0.572   0.566   0.568   0.575   0.584   0.546   0.548   0.518   0.509   0.527   0.562   0.564   0.501   0.506   0.503   0.454   0.478   0.491   0.503   0.497   0.491   0.475   0.475   0.462   0.440   0.452   0.445   0.450   0.447   0.478   0.498   0.483   0.462   0.480   0.471   0.490   0.487   0.486   0.505   0.509   0.497   0.475   0.484   0.516   0.545   0.562   0.551   0.534   0.506   0.516   0.524   0.501   0.488   0.502   0.492   0.497   0.458   0.475   0.452   0.459   0.495   0.514   0.501   0.555   0.572   0.596   0.588   0.562   0.542   0.508   0.502   0.500   0.506   0.464   0.448   0.470   0.441   0.431   0.436   0.444   0.445   0.432   0.440   0.432   0.430   0.435   0.471   0.491   0.472
   121.90    0.437   0.459   0.491   0.514   0.514   0.510   0.508   0.515   0.482   0.503   0.490   0.459   0.458   0.453   0.447   0.456   0.437   0.426   0.441   0.390   0.447   0.454   0.454   0.481   0.493   0.496   0.430   0.432   0.434   0.427   0.479   0.500   0.451   0.439   0.472   0.487   0.482   0.457   0.440   0.434   0.412   0.407   0.399   0.411   0.435   0.450   0.483   0.487   0.489   0.488   0.511   0.493   0.492   0.524   0.513   0.491   0.492   0.460   0.442   0.506   0.469   0.510   0.517   0.476   0.484   0.480   0.507   0.538   0.601   0.606   0.593   0.528   0.507   0.500   0.471   0.518   0.538   0.561   0.502   0.495   0.514   0.486   0.466   0.497   0.518   0.515   0.523   0.521   0.520   0.520   0.555   0.547   0.535   0.524   0.526   0.505   0.519   0.481   0.455   0.482   0.526   0.516   0.551   0.566   0.587   0.565   0.574   0.586   0.563   0.603   0.549   0.528   0.514   0.529   0.561   0.555   0.498   0.491   0.451   0.482   0.518   0.500   0.506   0.492   0.489   0.467   0.465   0.463   0.459   0.458   0.453   0.433   0.441   0.442   0.438   0.475   0.481   0.488   0.476   0.481   0.511   0.490   0.477   0.479   0.464   0.462   0.468   0.482   0.524   0.512   0.548   0.488   0.466   0.459   0.501   0.472   0.480   0.481   0.489   0.483   0.463   0.499   0.445   0.460   0.527   0.519   0.528   0.554   0.526   0.531   0.554   0.532   0.539   0.506   0.472   0.504   0.482   0.454   0.440   0.467   0.467   0.445   0.412   0.411   0.448   0.453   0.438   0.417   0.409   0.415   0.418   0.453   0.447
   112.60    0.422   0.443   0.485   0.514   0.501   0.496   0.497   0.479   0.474   0.492   0.480   0.460   0.493   0.471   0.432   0.429   0.455   0.432   0.417   0.410   0.450   0.460   0.466   0.477   0.500   0.480   0.469   0.448   0.462   0.440   0.463   0.457   0.467   0.480   0.468   0.475   0.470   0.438   0.431   0.415   0.436   0.441   0.410   0.403   0.423   0.451   0.469   0.449   0.484   0.490   0.504   0.493   0.476   0.513   0.461   0.453   0.477   0.458   0.472   0.457   0.495   0.505   0.492   0.497   0.466   0.522   0.535   0.561   0.593   0.594   0.608   0.570   0.522   0.521   0.519   0.479   0.532   0.522   0.529   0.504   0.517   0.480   0.519   0.541   0.537   0.528   0.538   0.520   0.484   0.503   0.509   0.514   0.490   0.487   0.502   0.511   0.496   0.469   0.476   0.469   0.541   0.525   0.570   0.579   0.559   0.567   0.595   0.579   0.568   0.596   0.577   0.575   0.538   0.541   0.537   0.507   0.501   0.499   0.475   0.486   0.532   0.546   0.501   0.497   0.488   0.481   0.478   0.485   0.478   0.486   0.462   0.431   0.427   0.431   0.447   0.452   0.477   0.475   0.455   0.484   0.514   0.475   0.476   0.460   0.476   0.436   0.460   0.445   0.468   0.508   0.513   0.474   0.453   0.443   0.466   0.465   0.473   0.499   0.479   0.471   0.441   0.480   0.486   0.511   0.545   0.525   0.564   0.540   0.544   0.544   0.511   0.537   0.499   0.473   0.482   0.486   0.460   0.481   0.441   0.480   0.460   0.419   0.455   0.454   0.450   0.459   0.465   0.445   0.392   0.419   0.436   0.453   0.464
   103.30    0.432   0.451   0.509   0.519   0.521   0.473   0.463   0.501   0.482   0.508   0.474   0.462   0.452   0.446   0.447   0.476   0.457   0.449   0.441   0.436   0.459   0.475   0.483   0.476   0.478   0.476   0.473   0.484   0.447   0.439   0.429   0.436   0.439   0.480   0.483   0.440   0.455   0.454   0.462   0.455   0.435   0.450   0.427   0.401   0.418   0.476   0.459   0.434   0.472   0.444   0.463   0.478   0.433   0.477   0.458   0.482   0.460   0.444   0.442   0.467   0.486   0.497   0.466   0.488   0.488   0.504   0.543   0.561   0.583   0.596   0.610   0.596   0.546   0.514   0.490   0.481   0.502   0.516   0.571   0.527   0.506   0.504   0.547   0.560   0.511   0.518   0.505   0.554   0.498   0.480   0.497   0.483   0.449   0.475   0.518   0.500   0.494   0.475   0.459   0.487   0.519   0.503   0.534   0.550   0.564   0.554   0.601   0.567   0.564   0.601   0.582   0.559   0.509   0.521   0.505   0.510   0.483   0.490   0.513   0.466   0.520   0.549   0.528   0.510   0.479   0.502   0.485   0.443   0.465   0.450   0.419   0.405   0.420   0.442   0.456   0.475   0.471   0.494   0.488   0.470   0.480   0.480   0.486   0.459   0.482   0.449   0.450   0.462   0.478   0.482   0.503   0.449   0.446   0.444   0.471   0.480   0.466   0.470   0.449   0.449   0.470   0.491   0.511   0.538   0.529   0.554   0.557   0.557   0.538   0.510   0.508   0.508   0.509   0.476   0.462   0.462   0.455   0.450   0.449   0.475   0.485   0.471   0.459   0.476   0.465   0.457   0.428   0.420   0.438   0.440   0.446   0.462   0.487
    94.00    0.462   0.513   0.501   0.500   0.499   0.489   0.475   0.498   0.489   0.526   0.469   0.487   0.479   0.482   0.470   0.515   0.510   0.516   0.474   0.480   0.485   0.496   0.492   0.480   0.485   0.464   0.477   0.480   0.469   0.459   0.463   0.464   0.449   0.428   0.457   0.451   0.468   0.460   0.485   0.472   0.444   0.452   0.421   0.383   0.404   0.454   0.474   0.439   0.445   0.448   0.466   0.449   0.421   0.431   0.463   0.504   0.496   0.465   0.438   0.457   0.462   0.476   0.471   0.490   0.519   0.482   0.539   0.573   0.577   0.573   0.585   0.541   0.551   0.520   0.508   0.500   0.531   0.519   0.539   0.562   0.532   0.542   0.542   0.496   0.515   0.505   0.520   0.516   0.523   0.514   0.493   0.483   0.478   0.463   0.510   0.528   0.467   0.484   0.465   0.488   0.509   0.508   0.464   0.514   0.530   0.551   0.596   0.565   0.580   0.583   0.556   0.540   0.520   0.526   0.482   0.493   0.503   0.543   0.496   0.519   0.506   0.548   0.523   0.515   0.497   0.507   0.502   0.487   0.480   0.465   0.432   0.421   0.405   0.407   0.474   0.479   0.497   0.525   0.529   0.481   0.472   0.451   0.490   0.471   0.499   0.482   0.495   0.452   0.437   0.445   0.450   0.450   0.474   0.474   0.454   0.456   0.445   0.443   0.470   0.482   0.506   0.507   0.523   0.551   0.517   0.526   0.557   0.523   0.506   0.484   0.499   0.527   0.475   0.451   0.462   0.450   0.453   0.446   0.462   0.490   0.480   0.452   0.461   0.467   0.475   0.438   0.412   0.427   0.444   0.464   0.464   0.461   0.494
    84.70    0.479   0.503   0.519   0.513   0.505   0.506   0.497   0.485   0.504   0.526   0.505   0.475   0.491   0.496   0.503   0.507   0.480   0.498   0.477   0.475   0.481   0.522   0.500   0.504   0.490   0.461   0.490   0.469   0.487   0.446   0.419   0.441   0.438   0.432   0.444   0.438   0.431   0.472   0.463   0.445   0.427   0.448   0.419   0.429   0.449   0.454   0.461   0.470   0.493   0.501   0.505   0.487   0.483   0.461   0.470   0.477   0.497   0.485   0.484   0.473   0.464   0.474   0.483   0.508   0.555   0.546   0.578   0.577   0.538   0.538   0.543   0.539   0.532   0.514   0.512   0.522   0.504   0.530   0.535   0.545   0.568   0.525   0.505   0.477   0.503   0.508   0.472   0.492   0.499   0.537   0.508   0.490   0.480   0.464   0.498   0.517   0.505   0.469   0.463   0.488   0.477   0.503   0.470   0.477   0.543   0.549   0.592   0.590   0.560   0.520   0.532   0.518   0.526   0.514   0.489   0.465   0.488   0.483   0.487   0.467   0.488   0.506   0.486   0.524   0.512   0.529   0.539   0.518   0.486   0.505   0.474   0.438   0.451   0.473   0.455   0.467   0.472   0.482   0.508   0.524   0.515   0.486   0.478   0.485   0.503   0.473   0.481   0.469   0.454   0.445   0.438   0.439   0.501   0.483   0.490   0.469   0.459   0.448   0.484   0.516   0.498   0.515   0.527   0.554   0.539   0.537   0.522   0.521   0.510   0.494   0.487   0.479   0.461   0.477   0.476   0.490   0.468   0.407   0.453   0.464   0.479   0.448   0.425   0.448   0.467   0.441   0.432   0.421   0.432   0.451   0.451   0.497   0.497
    75.40    0.488   0.501   0.489   0.480   0.442   0.477   0.490   0.506   0.533   0.506   0.496   0.503   0.515   0.516   0.491   0.464   0.470   0.478   0.469   0.471   0.503   0.508   0.508   0.491   0.494   0.492   0.466   0.450   0.458   0.434   0.434   0.429   0.442   0.458   0.439   0.452   0.442   0.482   0.472   0.441   0.452   0.437   0.419   0.438   0.472   0.464   0.486   0.508   0.531   0.516   0.499   0.526   0.497   0.472   0.458   0.495   0.492   0.524   0.503   0.482   0.491   0.474   0.489   0.554   0.547   0.570   0.574   0.558   0.529   0.516   0.511   0.551   0.563   0.551   0.529   0.520   0.519   0.573   0.562   0.592   0.571   0.546   0.533   0.516   0.530   0.513   0.512   0.479   0.497   0.535   0.528   0.464   0.483   0.489   0.464   0.488   0.484   0.474   0.460   0.505   0.510   0.466   0.473   0.465   0.476   0.514   0.515   0.539   0.557   0.540   0.536   0.518   0.527   0.511   0.495   0.473   0.470   0.454   0.454   0.488   0.496   0.477   0.475   0.508   0.492   0.511   0.523   0.522   0.521   0.540   0.513   0.464   0.463   0.478   0.426   0.423   0.419   0.469   0.491   0.477   0.505   0.478   0.447   0.485   0.476   0.487   0.468   0.485   0.463   0.454   0.457   0.454   0.502   0.495   0.471   0.485   0.460   0.479   0.516   0.508   0.509   0.485   0.496   0.508   0.529   0.480   0.493   0.491   0.483   0.510   0.500   0.445   0.452   0.464   0.461   0.498   0.491   0.455   0.448   0.432   0.457   0.486   0.468   0.477   0.476   0.440   0.434   0.446   0.457   0.450   0.485   0.492   0.494
    66.10    0.465   0.472   0.470   0.485   0.479   0.474   0.486   0.511   0.536   0.494   0.479   0.481   0.481   0.484   0.458   0.441   0.445   0.468   0.446   0.432   0.422   0.470   0.503   0.499   0.496   0.488   0.483   0.442   0.447   0.402   0.414   0.389   0.417   0.465   0.465   0.477   0.477   0.496   0.464   0.469   0.453   0.445   0.450   0.447   0.502   0.468   0.494   0.488   0.495   0.505   0.521   0.512   0.517   0.491   0.487   0.516   0.502   0.524   0.502   0.505   0.512   0.505   0.521   0.548   0.546   0.574   0.572   0.566   0.524   0.508   0.478   0.521   0.548   0.568   0.543   0.517   0.525   0.544   0.541   0.583   0.578   0.527   0.531   0.486   0.534   0.497   0.528   0.534   0.493   0.522   0.488   0.478   0.482   0.491   0.470   0.458   0.445   0.452   0.472   0.497   0.499   0.473   0.477   0.457   0.458   0.468   0.477   0.495   0.511   0.544   0.539   0.512   0.484   0.479   0.494   0.475   0.453   0.428   0.455   0.472   0.479   0.517   0.513   0.505   0.476   0.490   0.511   0.503   0.542   0.538   0.490   0.482   0.426   0.427   0.404   0.419   0.386   0.444   0.433   0.473   0.474   0.472   0.492   0.478   0.484   0.494   0.490   0.468   0.475   0.458   0.452   0.445   0.478   0.508   0.508   0.486   0.465   0.489   0.502   0.498   0.532   0.484   0.486   0.498   0.484   0.471   0.447   0.458   0.475   0.484   0.479   0.483   0.499   0.458   0.476   0.498   0.506   0.463   0.424   0.411   0.443   0.444   0.464   0.493   0.473   0.442   0.434   0.437   0.449   0.430   0.461   0.469   0.479
    56.80    0.475   0.490   0.496   0.493   0.493   0.486   0.525   0.501   0.525   0.490   0.483   0.472   0.445   0.453   0.424   0.419   0.430   0.432   0.438   0.413   0.426   0.453   0.487   0.480   0.479   0.450   0.437   0.439   0.440   0.402   0.397   0.417   0.448   0.477   0.456   0.458   0.492   0.519   0.510   0.471   0.445   0.432   0.457   0.465   0.478   0.484   0.513   0.474   0.475   0.504   0.513   0.487   0.500   0.512   0.494   0.512   0.512   0.540   0.525   0.497   0.506   0.562   0.594   0.562   0.556   0.528   0.530   0.519   0.511   0.487   0.468   0.519   0.518   0.519   0.534   0.537   0.551   0.544   0.528   0.550   0.519   0.533   0.522   0.515   0.521   0.516   0.541   0.565   0.514   0.528   0.505   0.527   0.512   0.498   0.460   0.463   0.467   0.447   0.444   0.474   0.493   0.480   0.489   0.466   0.459   0.485   0.481   0.484   0.476   0.519   0.532   0.528   0.506   0.462   0.436   0.447   0.439   0.427   0.449   0.495   0.509   0.525   0.537   0.554   0.499   0.513   0.506   0.530   0.538   0.504   0.507   0.460   0.446   0.423   0.412   0.423   0.418   0.420   0.428   0.426   0.459   0.452   0.462   0.499   0.462   0.485   0.508   0.483   0.474   0.473   0.472   0.442   0.468   0.511   0.523   0.516   0.495   0.495   0.473   0.468   0.492   0.482   0.485   0.493   0.473   0.464   0.466   0.453   0.486   0.475   0.497   0.501   0.491   0.465   0.470   0.510   0.495   0.465   0.413   0.397   0.448   0.461   0.482   0.478   0.456   0.440   0.387   0.422   0.472   0.467   0.458   0.448   0.464
    47.50    0.494   0.482   0.497   0.521   0.504   0.522   0.519   0.496   0.501   0.495   0.470   0.447   0.456   0.432   0.398   0.412   0.430   0.403   0.418   0.415   0.437   0.453   0.455   0.489   0.477   0.447   0.438   0.442   0.428   0.436   0.426   0.424   0.454   0.459   0.428   0.445   0.451   0.464   0.453   0.443   0.421   0.435   0.481   0.469   0.479   0.519   0.457   0.452   0.480   0.497   0.495   0.521   0.525   0.480   0.467   0.505   0.500   0.509   0.505   0.480   0.483   0.523   0.564   0.575   0.585   0.544   0.532   0.514   0.486   0.494   0.512   0.543   0.520   0.544   0.578   0.549   0.551   0.528   0.534   0.527   0.542   0.537   0.531   0.541   0.545   0.559   0.564   0.543   0.542   0.523   0.515   0.492   0.507   0.451   0.466   0.461   0.461   0.437   0.446   0.472   0.486   0.473   0.515   0.495   0.479   0.480   0.454   0.481   0.486   0.521   0.470   0.496   0.480   0.474   0.459   0.454   0.448   0.449   0.450   0.492   0.537   0.566   0.559   0.557   0.528   0.540   0.488   0.482   0.511   0.501   0.495   0.470   0.468   0.465   0.435   0.408   0.424   0.444   0.442   0.438   0.441   0.450   0.449   0.469   0.479   0.467   0.500   0.474   0.453   0.474   0.459   0.481   0.476   0.516   0.513   0.504   0.495   0.456   0.483   0.468   0.454   0.497   0.492   0.446   0.448   0.442   0.466   0.473   0.494   0.500   0.504   0.513   0.492   0.470   0.445   0.491   0.501   0.470   0.410   0.424   0.451   0.446   0.490   0.507   0.469   0.443   0.405   0.410   0.449   0.458   0.446   0.479   0.451
    38.20    0.481   0.497   0.490   0.501   0.478   0.499   0.509   0.523   0.448   0.461   0.480   0.497   0.463   0.432   0.428   0.428   0.467   0.417   0.407   0.381   0.416   0.429   0.437   0.461   0.489   0.486   0.476   0.450   0.457   0.452   0.431   0.414   0.441   0.444   0.435   0.435   0.435   0.441   0.407   0.425   0.454   0.438   0.492   0.494   0.482   0.498   0.497   0.486   0.497   0.505   0.525   0.538   0.556   0.524   0.509   0.499   0.469   0.521   0.500   0.514   0.523   0.495   0.539   0.549   0.554   0.539   0.496   0.491   0.499   0.469   0.512   0.517   0.554   0.579   0.597   0.566   0.562   0.534   0.545   0.527   0.534   0.543   0.532   0.560   0.577   0.606   0.597   0.577   0.553   0.521   0.511   0.490   0.483   0.459   0.430   0.445   0.448   0.461   0.467   0.493   0.475   0.497   0.509   0.477   0.440   0.470   0.466   0.469   0.480   0.473   0.483   0.474   0.455   0.483   0.487   0.494   0.485   0.470   0.468   0.502   0.572   0.595   0.577   0.576   0.559   0.519   0.483   0.443   0.467   0.451   0.455   0.457   0.475   0.460   0.433   0.428   0.457   0.438   0.439   0.427   0.433   0.460   0.458   0.482   0.511   0.505   0.482   0.457   0.438   0.445   0.447   0.441   0.450   0.490   0.485   0.464   0.456   0.462   0.482   0.464   0.457   0.480   0.482   0.473   0.484   0.452   0.483   0.469   0.489   0.468   0.483   0.506   0.483   0.444   0.458   0.477   0.494   0.457   0.425   0.429   0.454   0.489   0.466   0.448   0.416   0.415   0.392   0.431   0.416   0.443   0.477   0.467   0.452
    28.90    0.475   0.459   0.464   0.464   0.467   0.503   0.487   0.502   0.459   0.492   0.483   0.465   0.468   0.430   0.439   0.451   0.444   0.431   0.428   0.412   0.422   0.452   0.444   0.454   0.475   0.489   0.485   0.465   0.463   0.430   0.416   0.395   0.431   0.426   0.438   0.436   0.446   0.443   0.407   0.438   0.454   0.455   0.469   0.483   0.503   0.490   0.463   0.465   0.467   0.496   0.540   0.564   0.542   0.517   0.496   0.473   0.484   0.505   0.503   0.487   0.473   0.503   0.516   0.520   0.510   0.489   0.506   0.495   0.484   0.483   0.510   0.546   0.585   0.590   0.586   0.552   0.583   0.547   0.540   0.537   0.579   0.576   0.545   0.563   0.571   0.619   0.625   0.592   0.583   0.548   0.481   0.432   0.449   0.423   0.445   0.471   0.475   0.456   0.467   0.468   0.498   0.467   0.472   0.473   0.477   0.464   0.489   0.477   0.453   0.487   0.471   0.479   0.482   0.521   0.518   0.529   0.539   0.522   0.508   0.542   0.570   0.595   0.593   0.615   0.561   0.506   0.467   0.462   0.431   0.406   0.450   0.464   0.459   0.444   0.423   0.425   0.431   0.429   0.424   0.414   0.419   0.429   0.459   0.462   0.477   0.470   0.458   0.453   0.432   0.440   0.452   0.420   0.448   0.439   0.471   0.453   0.443   0.457   0.478   0.489   0.471   0.512   0.521   0.534   0.480   0.480   0.506   0.460   0.482   0.470   0.479   0.491   0.504   0.452   0.444   0.467   0.460   0.438   0.422   0.462   0.447   0.465   0.453   0.463   0.436   0.406   0.414   0.415   0.416   0.443   0.488   0.447   0.433
    19.60    0.475   0.497   0.465   0.482   0.485   0.505   0.487   0.499   0.512   0.502   0.470   0.453   0.443   0.425   0.447   0.479   0.487   0.459   0.440   0.440   0.442   0.462   0.463   0.433   0.437   0.473   0.480   0.481   0.438   0.422   0.399   0.423   0.397   0.420   0.421   0.479   0.453   0.450   0.426   0.416   0.451   0.448   0.433   0.465   0.509   0.477   0.479   0.477   0.475   0.473   0.528   0.542   0.531   0.513   0.513   0.483   0.473   0.492   0.473   0.467   0.471   0.494   0.493   0.533   0.493   0.474   0.473   0.490   0.511   0.519   0.553   0.575   0.586   0.565   0.582   0.589   0.583   0.564   0.532   0.568   0.557   0.567   0.601   0.602   0.616   0.625   0.628   0.635   0.634   0.587   0.530   0.490   0.461   0.420   0.432   0.469   0.457   0.474   0.504   0.482   0.491   0.505   0.497   0.511   0.548   0.497   0.510   0.467   0.443   0.453   0.466   0.498   0.520   0.538   0.534   0.510   0.519   0.551   0.528   0.550   0.556   0.567   0.584   0.588   0.553   0.513   0.489   0.463   0.457   0.436   0.446   0.449   0.469   0.456   0.429   0.447   0.429   0.454   0.427   0.411   0.403   0.423   0.427   0.474   0.477   0.446   0.451   0.451   0.435   0.431   0.424   0.443   0.455   0.443   0.444   0.456   0.444   0.478   0.458   0.474   0.493   0.529   0.512   0.495   0.481   0.508   0.515   0.482   0.475   0.459   0.442   0.479   0.459   0.506   0.478   0.442   0.426   0.479   0.453   0.451   0.444   0.437   0.429   0.430   0.431   0.422   0.445   0.463   0.473   0.478   0.480   0.451   0.451
    10.30    0.467   0.488   0.473   0.493   0.498   0.520   0.508   0.503   0.497   0.515   0.474   0.481   0.470   0.429   0.470   0.490   0.498   0.474   0.453   0.503   0.483   0.488   0.463   0.468   0.486   0.456   0.473   0.452   0.422   0.416   0.402   0.403   0.423   0.452   0.435   0.444   0.500   0.449   0.423   0.434   0.441   0.425   0.447   0.453   0.471   0.495   0.474   0.502   0.473   0.489   0.517   0.531   0.495   0.526   0.533   0.505   0.498   0.468   0.490   0.505   0.477   0.482   0.504   0.516   0.529   0.515   0.522   0.534   0.571   0.576   0.582   0.576   0.601   0.550   0.593   0.608   0.567   0.514   0.521   0.553   0.556   0.573   0.574   0.611   0.652   0.657   0.681   0.635   0.655   0.609   0.564   0.556   0.487   0.475   0.447   0.492   0.478   0.483   0.487   0.511   0.476   0.487   0.475   0.484   0.499   0.491   0.482   0.465   0.456   0.494   0.500   0.487   0.553   0.556   0.559   0.518   0.535   0.516   0.536   0.562   0.535   0.522   0.551   0.549   0.563   0.510   0.501   0.460   0.464   0.438   0.472   0.465   0.468   0.455   0.412   0.409   0.425   0.427   0.426   0.411   0.426   0.444   0.401   0.440   0.443   0.436   0.454   0.445   0.459   0.430   0.438   0.452   0.476   0.448   0.442   0.434   0.447   0.440   0.451   0.448   0.491   0.524   0.530   0.484   0.503   0.519   0.514   0.529   0.465   0.445   0.452   0.466   0.473   0.490   0.465   0.453   0.438   0.456   0.469   0.459   0.442   0.430   0.415   0.451   0.412   0.424   0.402   0.427   0.459   0.501   0.489   0.481   0.480
     1.00    0.477   0.488   0.434   0.483   0.531   0.485   0.507   0.474   0.491   0.473   0.466   0.487   0.477   0.499   0.473   0.483   0.503   0.494   0.485   0.483   0.494   0.454   0.485   0.491   0.492   0.470   0.448   0.463   0.436   0.426   0.413   0.425   0.418   0.449   0.445   0.462   0.491   0.472   0.440   0.455   0.420   0.456   0.440   0.479   0.478   0.459   0.460   0.491   0.468   0.467   0.490   0.487   0.486   0.509   0.508   0.515   0.470   0.493   0.499   0.477   0.495   0.511   0.499   0.530   0.538   0.536   0.547   0.553   0.598   0.574   0.575   0.565   0.576   0.547   0.586   0.577   0.538   0.528   0.547   0.582   0.552   0.592   0.603   0.615   0.646   0.662   0.646   0.648   0.606   0.628   0.586   0.545   0.532   0.477   0.450   0.493   0.502   0.498   0.482   0.480   0.491   0.516   0.498   0.515   0.496   0.480   0.455   0.465   0.480   0.497   0.489   0.510   0.500   0.527   0.514   0.535   0.560   0.542   0.551   0.529   0.515   0.505   0.530   0.542   0.527   0.495   0.466   0.488   0.469   0.461   0.448   0.412   0.444   0.443   0.404   0.424   0.414   0.405   0.414   0.417   0.444   0.462   0.423   0.441   0.471   0.445   0.470   0.460   0.453   0.451   0.464   0.451   0.491   0.451   0.454   0.432   0.450   0.430   0.439   0.477   0.485   0.521   0.530   0.527   0.502   0.514   0.521   0.518   0.486   0.459   0.427   0.460   0.462   0.467   0.466   0.479   0.462   0.481   0.468   0.425   0.449   0.439   0.439   0.423   0.421   0.423   0.438   0.445   0.457   0.469   0.472   0.458   0.409

   Height   Standard deviation at grid points for the v component:
   354.40    0.395   0.398   0.414   0.390   0.411   0.413   0.395   0.395   0.382   0.391   0.412   0.400   0.406   0.417   0.423   0.430   0.422   0.398   0.368   0.374   0.369   0.340   0.364   0.366   0.364   0.393   0.410   0.406   0.394   0.402   0.396   0.388   0.385   0.384   0.382   0.396   0.379   0.371   0.377   0.368   0.358   0.387   0.385   0.404   0.408   0.400   0.401   0.395   0.392   0.391   0.398   0.392   0.391   0.382   0.384   0.385   0.383   0.400   0.391   0.415   0.443   0.444   0.445   0.432   0.412   0.407   0.418   0.416   0.411   0.390   0.391   0.380   0.411   0.398   0.433   0.426   0.421   0.402   0.403   0.406   0.365   0.382   0.365   0.359   0.369   0.384   0.407   0.398   0.397   0.397   0.383   0.374   0.374   0.341   0.332   0.344   0.358   0.368   0.359   0.381   0.387   0.392   0.389   0.372   0.384   0.367   0.361   0.376   0.390   0.388   0.404   0.389   0.386   0.385   0.370   0.386   0.385   0.374   0.366   0.371   0.363   0.357   0.358   0.336   0.359   0.374   0.373   0.359   0.362   0.369   0.373   0.365   0.362   0.398   0.413   0.426   0.409   0.400   0.389   0.370   0.388   0.396   0.389   0.421   0.404   0.418   0.443   0.456   0.434   0.406   0.413   0.430   0.438   0.431   0.411   0.416   0.408   0.396   0.415   0.402   0.427   0.404   0.403   0.395   0.399   0.391   0.389   0.368   0.374   0.375   0.359   0.345   0.377   0.361   0.360   0.362   0.364   0.365   0.369   0.367   0.379   0.377   0.390   0.376   0.377   0.384   0.365   0.360   0.353   0.351   0.359   0.360   0.385
   345.10    0.388   0.383   0.368   0.371   0.401   0.409   0.390   0.373   0.377   0.390   0.392   0.394   0.406   0.397   0.415   0.397   0.403   0.387   0.361   0.375   0.362   0.359   0.345   0.353   0.361   0.382   0.400   0.408   0.413   0.406   0.395   0.395   0.411   0.406   0.381   0.381   0.389   0.345   0.379   0.372   0.375   0.409   0.403   0.397   0.409   0.404   0.393   0.385   0.380   0.403   0.402   0.380   0.396   0.394   0.374   0.386   0.382   0.378   0.399   0.422   0.425   0.416   0.431   0.456   0.448   0.410   0.404   0.416   0.402   0.385   0.385   0.400   0.397   0.400   0.402   0.410   0.405   0.407   0.402   0.402   0.385   0.352   0.360   0.355   0.373   0.385   0.400   0.413   0.407   0.396   0.374   0.379   0.355   0.334   0.343   0.358   0.371   0.380   0.365   0.377   0.388   0.390   0.382   0.402   0.372   0.381   0.362   0.386   0.389   0.386   0.399   0.397   0.399   0.380   0.382   0.391   0.382   0.362   0.370   0.372   0.356   0.347   0.348   0.344   0.358   0.373   0.380   0.380   0.380   0.375   0.362   0.356   0.381   0.393   0.395   0.410   0.402   0.402   0.391   0.384   0.385   0.396   0.403   0.410   0.410   0.422   0.440   0.447   0.410   0.430   0.435   0.441   0.440   0.451   0.414   0.413   0.398   0.386   0.402   0.402   0.415   0.400   0.412   0.411   0.420   0.396   0.384   0.365   0.359   0.372   0.364   0.355   0.372   0.380   0.382   0.379   0.375   0.353   0.356   0.372   0.378   0.393   0.392   0.364   0.370   0.377   0.379   0.377   0.370   0.364   0.350   0.370   0.383
   335.80    0.385   0.375   0.356   0.383   0.368   0.389   0.386   0.372   0.364   0.367   0.362   0.373   0.377   0.390   0.389   0.387   0.389   0.391   0.386   0.376   0.371   0.365   0.345   0.370   0.373   0.382   0.399   0.395   0.398   0.409   0.419   0.403   0.415   0.396   0.389   0.390   0.375   0.373   0.386   0.378   0.384   0.411   0.392   0.384   0.404   0.414   0.401   0.394   0.402   0.380   0.383   0.388   0.379   0.391   0.384   0.377   0.374   0.351   0.385   0.420   0.417   0.430   0.453   0.432   0.450   0.422   0.410   0.385   0.383   0.376   0.398   0.404   0.408   0.392   0.408   0.422   0.404   0.416   0.404   0.398   0.391   0.362   0.347   0.346   0.371   0.380   0.385   0.391   0.388   0.383   0.384   0.361   0.355   0.326   0.347   0.361   0.381   0.369   0.382   0.391   0.399   0.365   0.381   0.401   0.381   0.400   0.399   0.390   0.379   0.391   0.408   0.386   0.385   0.388   0.396   0.383   0.383   0.365   0.363   0.366   0.343   0.355   0.361   0.369   0.348   0.357   0.379   0.379   0.373   0.388   0.372   0.374   0.379   0.383   0.383   0.390   0.401   0.398   0.371   0.370   0.374   0.385   0.386   0.390   0.410   0.408   0.424   0.432   0.412   0.441   0.457   0.426   0.438   0.412   0.407   0.420   0.393   0.394   0.399   0.393   0.394   0.401   0.400   0.406   0.410   0.374   0.380   0.364   0.361   0.367   0.366   0.377   0.379   0.376   0.367   0.354   0.372   0.363   0.367   0.380   0.378   0.387   0.371   0.368   0.371   0.380   0.385   0.383   0.382   0.364   0.350   0.374   0.377
   326.50    0.391   0.360   0.367   0.381   0.383   0.394   0.381   0.377   0.371   0.348   0.362   0.368   0.364   0.374   0.404   0.393   0.400   0.407   0.374   0.375   0.388   0.366   0.360   0.366   0.360   0.384   0.384   0.404   0.408   0.384   0.402   0.426   0.423   0.406   0.383   0.378   0.389   0.384   0.377   0.361   0.395   0.419   0.399   0.405   0.390   0.412   0.415   0.407   0.392   0.374   0.374   0.376   0.388   0.380   0.369   0.389   0.388   0.349   0.368   0.394   0.426   0.438   0.419   0.423   0.419   0.425   0.414   0.403   0.399   0.408   0.383   0.386   0.390   0.395   0.398   0.408   0.423   0.400   0.420   0.398   0.401   0.395   0.375   0.370   0.366   0.359   0.368   0.383   0.386   0.383   0.362   0.366   0.376   0.341   0.355   0.361   0.378   0.385   0.393   0.401   0.386   0.379   0.356   0.363   0.376   0.399   0.388   0.408   0.386   0.379   0.382   0.390   0.413   0.417   0.407   0.392   0.380   0.362   0.376   0.363   0.358   0.360   0.360   0.360   0.359   0.347   0.354   0.342   0.364   0.362   0.370   0.380   0.369   0.370   0.387   0.398   0.397   0.373   0.381   0.389   0.391   0.399   0.378   0.394   0.414   0.435   0.448   0.431   0.430   0.437   0.430   0.438   0.413   0.417   0.397   0.409   0.386   0.397   0.391   0.386   0.385   0.397   0.386   0.391   0.380   0.360   0.367   0.369   0.373   0.363   0.362   0.378   0.369   0.369   0.387   0.369   0.385   0.384   0.390   0.384   0.377   0.393   0.382   0.380   0.378   0.396   0.372   0.379   0.375   0.365   0.366   0.371   0.381
[...]
   103.30    0.236   0.232   0.224   0.231   0.233   0.231   0.231   0.235   0.230   0.230   0.237   0.245   0.240   0.235   0.237   0.239   0.232   0.230   0.225   0.231   0.234   0.229   0.229   0.235   0.233   0.242   0.239   0.236   0.240   0.243   0.244   0.232   0.239   0.230   0.230   0.231   0.228   0.228   0.236   0.241   0.237   0.251   0.258   0.244   0.233   0.242   0.236   0.230   0.228   0.229   0.230   0.233   0.238   0.231   0.223   0.231   0.236   0.231   0.230   0.236   0.235   0.228   0.231   0.236   0.241   0.239   0.237   0.237   0.238   0.233   0.231   0.227   0.229   0.237   0.236   0.231   0.227   0.246   0.244   0.244   0.246   0.246   0.236   0.232   0.235   0.235   0.242   0.240   0.240   0.243   0.240   0.248   0.251   0.245   0.240   0.238   0.234   0.235   0.247   0.253   0.253   0.248   0.243   0.241   0.245   0.242   0.244   0.241   0.238   0.236   0.230   0.237   0.236   0.233   0.233   0.233   0.237   0.240   0.237   0.244   0.240   0.239   0.228   0.243   0.234   0.233   0.245   0.245   0.242   0.242   0.243   0.249   0.246   0.237   0.243   0.245   0.243   0.250   0.239   0.235   0.227   0.233   0.237   0.232   0.232   0.238   0.234   0.228   0.226   0.235   0.234   0.237   0.239   0.236   0.233   0.234   0.232   0.223   0.226   0.230   0.244   0.244   0.245   0.242   0.237   0.239   0.246   0.249   0.241   0.234   0.234   0.252   0.238   0.235   0.242   0.239   0.247   0.243   0.237   0.237   0.234   0.239   0.247   0.236   0.243   0.238   0.231   0.239   0.244   0.243   0.247   0.232   0.230
    94.00    0.236   0.231   0.224   0.232   0.235   0.236   0.235   0.232   0.231   0.228   0.241   0.238   0.235   0.241   0.248   0.242   0.239   0.236   0.233   0.231   0.230   0.229   0.227   0.229   0.234   0.239   0.234   0.227   0.226   0.232   0.234   0.226   0.236   0.238   0.235   0.233   0.229   0.234   0.245   0.244   0.245   0.253   0.250   0.246   0.233   0.240   0.234   0.231   0.237   0.232   0.235   0.233   0.236   0.240   0.229   0.233   0.237   0.232   0.232   0.234   0.232   0.237   0.232   0.233   0.238   0.240   0.233   0.231   0.237   0.239   0.235   0.228   0.231   0.228   0.238   0.231   0.242   0.247   0.242   0.245   0.250   0.249   0.230   0.235   0.237   0.237   0.239   0.241   0.234   0.236   0.228   0.244   0.240   0.238   0.238   0.234   0.231   0.235   0.241   0.245   0.243   0.243   0.236   0.245   0.246   0.244   0.240   0.237   0.233   0.237   0.240   0.234   0.236   0.234   0.230   0.233   0.235   0.234   0.242   0.242   0.241   0.232   0.239   0.235   0.234   0.239   0.242   0.245   0.245   0.243   0.240   0.240   0.238   0.238   0.243   0.245   0.247   0.246   0.251   0.248   0.238   0.236   0.235   0.235   0.238   0.232   0.233   0.232   0.234   0.237   0.246   0.235   0.234   0.237   0.234   0.233   0.234   0.236   0.234   0.236   0.244   0.243   0.237   0.240   0.250   0.239   0.253   0.241   0.240   0.239   0.247   0.243   0.241   0.237   0.237   0.240   0.248   0.240   0.236   0.239   0.242   0.244   0.244   0.244   0.241   0.250   0.251   0.245   0.236   0.238   0.241   0.232   0.237
    84.70    0.227   0.225   0.227   0.229   0.235   0.231   0.232   0.232   0.224   0.233   0.241   0.241   0.243   0.239   0.234   0.235   0.240   0.227   0.230   0.227   0.234   0.228   0.222   0.230   0.229   0.233   0.235   0.242   0.236   0.229   0.234   0.233   0.231   0.238   0.235   0.241   0.239   0.235   0.238   0.239   0.239   0.248   0.246   0.241   0.242   0.243   0.238   0.237   0.232   0.234   0.233   0.237   0.237   0.233   0.233   0.232   0.232   0.223   0.227   0.233   0.239   0.240   0.235   0.233   0.237   0.238   0.233   0.232   0.234   0.237   0.239   0.231   0.236   0.223   0.234   0.237   0.245   0.251   0.247   0.248   0.249   0.252   0.245   0.238   0.236   0.252   0.239   0.243   0.234   0.226   0.217   0.233   0.231   0.231   0.237   0.242   0.235   0.235   0.240   0.246   0.243   0.244   0.241   0.240   0.247   0.243   0.234   0.231   0.225   0.237   0.234   0.232   0.235   0.237   0.234   0.228   0.229   0.231   0.239   0.244   0.246   0.233   0.233   0.237   0.235   0.233   0.242   0.253   0.246   0.240   0.239   0.236   0.244   0.249   0.243   0.243   0.250   0.248   0.254   0.244   0.241   0.234   0.235   0.232   0.232   0.241   0.234   0.234   0.234   0.243   0.236   0.239   0.231   0.237   0.238   0.241   0.235   0.241   0.239   0.237   0.243   0.238   0.243   0.240   0.241   0.242   0.247   0.249   0.235   0.241   0.243   0.238   0.238   0.234   0.232   0.236   0.234   0.242   0.242   0.234   0.246   0.241   0.243   0.242   0.242   0.245   0.249   0.245   0.239   0.241   0.236   0.231   0.239
    75.40    0.230   0.227   0.229   0.235   0.236   0.240   0.237   0.233   0.233   0.244   0.238   0.242   0.234   0.245   0.230   0.231   0.238   0.224   0.228   0.227   0.227   0.230   0.223   0.221   0.235   0.231   0.238   0.244   0.241   0.237   0.234   0.241   0.234   0.240   0.248   0.242   0.241   0.241   0.235   0.233   0.235   0.243   0.246   0.247   0.244   0.235   0.241   0.244   0.242   0.237   0.227   0.227   0.226   0.228   0.229   0.224   0.228   0.233   0.223   0.230   0.235   0.240   0.235   0.231   0.227   0.225   0.242   0.237   0.232   0.233   0.230   0.234   0.235   0.228   0.236   0.237   0.247   0.251   0.249   0.249   0.248   0.252   0.257   0.246   0.244   0.246   0.243   0.238   0.232   0.225   0.225   0.232   0.238   0.241   0.234   0.235   0.236   0.239   0.238   0.241   0.235   0.226   0.241   0.246   0.239   0.246   0.241   0.240   0.233   0.237   0.239   0.232   0.233   0.241   0.237   0.228   0.228   0.242   0.244   0.241   0.238   0.237   0.238   0.244   0.243   0.244   0.242   0.247   0.245   0.246   0.246   0.241   0.238   0.242   0.243   0.247   0.250   0.248   0.246   0.236   0.246   0.248   0.239   0.231   0.233   0.231   0.244   0.249   0.237   0.235   0.230   0.236   0.238   0.237   0.234   0.237   0.237   0.238   0.236   0.247   0.239   0.242   0.247   0.249   0.239   0.241   0.247   0.242   0.240   0.244   0.248   0.235   0.230   0.232   0.230   0.231   0.232   0.233   0.235   0.237   0.245   0.242   0.244   0.254   0.247   0.249   0.248   0.242   0.241   0.237   0.240   0.233   0.232
    66.10    0.229   0.240   0.242   0.240   0.244   0.244   0.236   0.245   0.238   0.234   0.241   0.238   0.230   0.232   0.233   0.236   0.231   0.230   0.226   0.224   0.225   0.229   0.230   0.233   0.236   0.238   0.238   0.242   0.239   0.239   0.239   0.244   0.242   0.234   0.238   0.239   0.241   0.242   0.233   0.234   0.242   0.242   0.245   0.246   0.241   0.235   0.241   0.239   0.232   0.236   0.232   0.225   0.227   0.225   0.222   0.229   0.236   0.231   0.229   0.230   0.230   0.237   0.230   0.231   0.236   0.235   0.244   0.247   0.241   0.237   0.228   0.228   0.235   0.238   0.236   0.232   0.240   0.244   0.237   0.246   0.245   0.245   0.252   0.243   0.241   0.238   0.242   0.239   0.230   0.233   0.223   0.220   0.233   0.236   0.231   0.227   0.232   0.240   0.230   0.230   0.235   0.232   0.240   0.247   0.240   0.246   0.247   0.242   0.244   0.245   0.241   0.238   0.242   0.240   0.237   0.245   0.244   0.246   0.243   0.240   0.237   0.227   0.234   0.236   0.242   0.254   0.249   0.240   0.245   0.243   0.243   0.249   0.244   0.238   0.247   0.254   0.253   0.245   0.239   0.242   0.243   0.239   0.240   0.232   0.233   0.238   0.244   0.245   0.242   0.235   0.235   0.234   0.235   0.228   0.229   0.225   0.239   0.234   0.236   0.239   0.249   0.252   0.249   0.239   0.236   0.239   0.250   0.244   0.246   0.250   0.239   0.243   0.240   0.235   0.242   0.242   0.233   0.232   0.236   0.240   0.239   0.238   0.247   0.254   0.251   0.249   0.245   0.243   0.240   0.239   0.240   0.237   0.232
    56.80    0.229   0.232   0.245   0.244   0.245   0.241   0.243   0.242   0.233   0.241   0.238   0.236   0.233   0.232   0.234   0.236   0.220   0.224   0.219   0.228   0.228   0.228   0.233   0.233   0.232   0.238   0.240   0.240   0.246   0.244   0.245   0.250   0.237   0.228   0.236   0.237   0.238   0.246   0.243   0.239   0.235   0.240   0.246   0.243   0.232   0.232   0.231   0.239   0.239   0.235   0.231   0.231   0.236   0.225   0.236   0.241   0.237   0.233   0.242   0.236   0.241   0.235   0.234   0.237   0.237   0.238   0.240   0.249   0.248   0.237   0.232   0.235   0.232   0.237   0.240   0.246   0.234   0.240   0.245   0.237   0.239   0.243   0.249   0.246   0.239   0.238   0.234   0.233   0.232   0.234   0.223   0.221   0.231   0.238   0.236   0.225   0.238   0.241   0.244   0.230   0.237   0.236   0.235   0.244   0.234   0.241   0.244   0.253   0.249   0.245   0.245   0.251   0.253   0.245   0.251   0.244   0.246   0.250   0.243   0.247   0.248   0.241   0.243   0.241   0.249   0.255   0.251   0.247   0.238   0.237   0.245   0.249   0.246   0.244   0.250   0.246   0.243   0.239   0.240   0.242   0.242   0.242   0.236   0.231   0.229   0.241   0.242   0.241   0.245   0.237   0.234   0.233   0.237   0.233   0.229   0.233   0.245   0.245   0.234   0.245   0.246   0.244   0.250   0.242   0.239   0.235   0.244   0.245   0.247   0.244   0.243   0.251   0.243   0.250   0.241   0.230   0.229   0.228   0.231   0.238   0.231   0.239   0.239   0.247   0.247   0.247   0.243   0.238   0.233   0.236   0.242   0.238   0.226
    47.50    0.236   0.235   0.238   0.239   0.239   0.240   0.237   0.238   0.230   0.236   0.242   0.232   0.232   0.238   0.237   0.232   0.233   0.232   0.227   0.232   0.232   0.233   0.233   0.230   0.230   0.233   0.230   0.238   0.252   0.254   0.246   0.241   0.248   0.249   0.242   0.234   0.237   0.250   0.253   0.244   0.233   0.241   0.238   0.229   0.225   0.230   0.238   0.236   0.242   0.238   0.235   0.235   0.231   0.239   0.240   0.239   0.235   0.236   0.240   0.238   0.250   0.236   0.238   0.237   0.244   0.238   0.237   0.235   0.233   0.240   0.234   0.232   0.234   0.237   0.243   0.245   0.235   0.236   0.240   0.244   0.240   0.242   0.238   0.240   0.233   0.236   0.231   0.232   0.232   0.229   0.223   0.238   0.226   0.235   0.234   0.225   0.220   0.237   0.234   0.234   0.233   0.238   0.241   0.235   0.237   0.242   0.249   0.248   0.242   0.244   0.245   0.251   0.260   0.254   0.252   0.255   0.249   0.246   0.248   0.245   0.245   0.243   0.245   0.241   0.242   0.254   0.249   0.244   0.237   0.240   0.237   0.244   0.247   0.240   0.242   0.239   0.241   0.235   0.236   0.236   0.242   0.243   0.245   0.240   0.242   0.250   0.242   0.241   0.247   0.229   0.230   0.235   0.229   0.240   0.244   0.238   0.246   0.245   0.249   0.246   0.242   0.238   0.250   0.244   0.240   0.239   0.250   0.249   0.248   0.250   0.239   0.239   0.249   0.242   0.238   0.238   0.231   0.231   0.231   0.236   0.241   0.239   0.229   0.234   0.238   0.239   0.236   0.244   0.231   0.232   0.228   0.227   0.231
    38.20    0.237   0.234   0.239   0.236   0.248   0.247   0.239   0.235   0.236   0.240   0.236   0.236   0.236   0.235   0.231   0.231   0.231   0.229   0.239   0.233   0.226   0.224   0.234   0.229   0.233   0.240   0.233   0.236   0.247   0.251   0.249   0.241   0.242   0.237   0.238   0.232   0.230   0.244   0.245   0.239   0.235   0.237   0.236   0.225   0.231   0.238   0.243   0.244   0.240   0.237   0.232   0.226   0.235   0.241   0.241   0.239   0.237   0.241   0.237   0.237   0.243   0.238   0.236   0.237   0.238   0.239   0.240   0.235   0.239   0.240   0.228   0.236   0.229   0.229   0.235   0.236   0.226   0.235   0.236   0.241   0.235   0.232   0.230   0.231   0.236   0.235   0.235   0.238   0.230   0.229   0.224   0.226   0.222   0.223   0.226   0.228   0.230   0.235   0.228   0.222   0.228   0.225   0.230   0.232   0.235   0.244   0.243   0.236   0.231   0.239   0.254   0.248   0.247   0.256   0.246   0.250   0.250   0.251   0.247   0.241   0.242   0.245   0.234   0.242   0.253   0.250   0.243   0.247   0.238   0.241   0.239   0.242   0.244   0.243   0.243   0.244   0.243   0.233   0.235   0.245   0.246   0.243   0.244   0.237   0.245   0.246   0.239   0.240   0.232   0.228   0.234   0.233   0.233   0.232   0.239   0.242   0.243   0.246   0.242   0.244   0.243   0.246   0.251   0.251   0.240   0.244   0.246   0.245   0.252   0.242   0.243   0.244   0.239   0.244   0.245   0.236   0.238   0.231   0.234   0.231   0.234   0.232   0.229   0.239   0.239   0.237   0.234   0.237   0.236   0.224   0.230   0.230   0.229
    28.90    0.237   0.239   0.239   0.241   0.246   0.247   0.241   0.239   0.233   0.230   0.241   0.235   0.231   0.230   0.237   0.217   0.228   0.231   0.232   0.237   0.229   0.226   0.234   0.231   0.230   0.243   0.243   0.238   0.243   0.249   0.247   0.236   0.237   0.236   0.232   0.224   0.232   0.242   0.234   0.235   0.229   0.227   0.236   0.235   0.240   0.241   0.248   0.243   0.239   0.242   0.233   0.227   0.230   0.238   0.241   0.236   0.235   0.247   0.240   0.242   0.242   0.242   0.234   0.236   0.226   0.230   0.226   0.235   0.242   0.234   0.236   0.230   0.226   0.238   0.232   0.232   0.232   0.237   0.236   0.238   0.240   0.236   0.233   0.230   0.237   0.239   0.236   0.231   0.225   0.229   0.233   0.233   0.220   0.222   0.226   0.227   0.233   0.227   0.223   0.230   0.232   0.233   0.232   0.228   0.239   0.237   0.239   0.232   0.241   0.249   0.248   0.244   0.253   0.249   0.248   0.251   0.247   0.255   0.249   0.238   0.248   0.237   0.242   0.246   0.247   0.254   0.252   0.252   0.247   0.251   0.243   0.243   0.252   0.246   0.243   0.250   0.239   0.243   0.249   0.248   0.239   0.240   0.243   0.239   0.238   0.244   0.249   0.241   0.235   0.235   0.229   0.237   0.239   0.227   0.239   0.238   0.241   0.243   0.243   0.236   0.243   0.244   0.242   0.239   0.240   0.242   0.245   0.245   0.246   0.246   0.246   0.242   0.244   0.244   0.248   0.237   0.237   0.233   0.233   0.231   0.228   0.238   0.241   0.240   0.233   0.228   0.228   0.233   0.226   0.226   0.236   0.228   0.231
    19.60    0.244   0.241   0.245   0.246   0.246   0.244   0.241   0.237   0.232   0.240   0.244   0.242   0.235   0.231   0.235   0.233   0.231   0.226   0.233   0.236   0.231   0.236   0.236   0.235   0.233   0.242   0.248   0.249   0.251   0.252   0.255   0.249   0.238   0.236   0.222   0.217   0.227   0.241   0.235   0.237   0.231   0.232   0.234   0.236   0.235   0.240   0.236   0.238   0.240   0.240   0.238   0.241   0.242   0.244   0.240   0.239   0.243   0.249   0.250   0.245   0.246   0.242   0.235   0.230   0.232   0.229   0.231   0.230   0.227   0.236   0.229   0.233   0.237   0.237   0.238   0.226   0.237   0.231   0.228   0.231   0.238   0.229   0.231   0.240   0.242   0.241   0.234   0.228   0.227   0.222   0.229   0.229   0.228   0.226   0.227   0.225   0.230   0.223   0.227   0.234   0.243   0.241   0.235   0.237   0.241   0.232   0.233   0.234   0.238   0.239   0.240   0.238   0.246   0.246   0.251   0.252   0.254   0.250   0.247   0.248   0.238   0.240   0.246   0.246   0.250   0.245   0.247   0.257   0.243   0.246   0.255   0.248   0.243   0.250   0.254   0.248   0.249   0.241   0.244   0.242   0.238   0.237   0.235   0.236   0.232   0.245   0.245   0.235   0.235   0.237   0.237   0.237   0.238   0.234   0.233   0.241   0.240   0.237   0.240   0.236   0.232   0.235   0.235   0.240   0.242   0.239   0.244   0.241   0.251   0.250   0.247   0.250   0.255   0.253   0.245   0.241   0.245   0.237   0.232   0.228   0.232   0.238   0.234   0.233   0.241   0.235   0.232   0.232   0.226   0.224   0.223   0.227   0.235
    10.30    0.249   0.242   0.240   0.240   0.243   0.234   0.236   0.238   0.233   0.233   0.236   0.236   0.233   0.233   0.239   0.237   0.240   0.235   0.233   0.232   0.228   0.229   0.233   0.246   0.236   0.244   0.245   0.249   0.253   0.246   0.250   0.243   0.233   0.219   0.223   0.223   0.231   0.236   0.237   0.234   0.240   0.237   0.232   0.236   0.228   0.233   0.231   0.238   0.243   0.239   0.236   0.242   0.241   0.242   0.241   0.239   0.239   0.245   0.246   0.257   0.245   0.236   0.246   0.240   0.233   0.225   0.229   0.232   0.237   0.236   0.235   0.241   0.239   0.237   0.235   0.231   0.227   0.237   0.234   0.228   0.238   0.233   0.228   0.242   0.240   0.238   0.238   0.233   0.230   0.231   0.227   0.220   0.227   0.227   0.226   0.230   0.224   0.228   0.237   0.237   0.246   0.241   0.233   0.238   0.245   0.236   0.228   0.229   0.230   0.235   0.242   0.245   0.235   0.250   0.256   0.261   0.254   0.242   0.248   0.246   0.244   0.242   0.239   0.247   0.247   0.246   0.248   0.248   0.254   0.250   0.246   0.249   0.253   0.250   0.250   0.251   0.244   0.233   0.237   0.242   0.241   0.238   0.236   0.235   0.237   0.241   0.238   0.230   0.236   0.238   0.238   0.227   0.232   0.234   0.237   0.234   0.232   0.237   0.241   0.250   0.238   0.232   0.233   0.238   0.240   0.245   0.240   0.242   0.243   0.246   0.254   0.256   0.255   0.260   0.253   0.241   0.241   0.232   0.226   0.228   0.234   0.234   0.234   0.229   0.229   0.234   0.243   0.231   0.226   0.230   0.234   0.234   0.238
     1.00    0.237   0.236   0.231   0.232   0.236   0.235   0.233   0.232   0.232   0.236   0.240   0.234   0.240   0.239   0.236   0.226   0.234   0.230   0.230   0.226   0.226   0.228   0.239   0.235   0.239   0.242   0.244   0.248   0.247   0.241   0.238   0.235   0.230   0.224   0.219   0.232   0.235   0.232   0.236   0.230   0.226   0.228   0.233   0.230   0.235   0.232   0.230   0.244   0.229   0.237   0.232   0.231   0.237   0.240   0.238   0.245   0.236   0.240   0.243   0.240   0.240   0.243   0.238   0.243   0.231   0.224   0.228   0.224   0.235   0.240   0.235   0.240   0.237   0.239   0.231   0.230   0.231   0.238   0.234   0.236   0.236   0.241   0.230   0.237   0.244   0.238   0.236   0.226   0.225   0.234   0.235   0.233   0.230   0.228   0.225   0.225   0.227   0.231   0.234   0.238   0.244   0.241   0.234   0.239   0.242   0.242   0.230   0.231   0.231   0.241   0.245   0.244   0.244   0.255   0.254   0.257   0.252   0.246   0.242   0.242   0.237   0.239   0.242   0.240   0.250   0.252   0.251   0.251   0.251   0.255   0.253   0.249   0.244   0.249   0.244   0.244   0.236   0.240   0.239   0.235   0.241   0.235   0.234   0.227   0.232   0.235   0.230   0.237   0.233   0.230   0.236   0.230   0.232   0.234   0.236   0.234   0.241   0.240   0.234   0.239   0.247   0.241   0.241   0.244   0.237   0.240   0.236   0.237   0.240   0.244   0.254   0.249   0.250   0.253   0.256   0.244   0.240   0.238   0.232   0.228   0.232   0.230   0.234   0.230   0.231   0.240   0.241   0.236   0.239   0.243   0.238   0.232   0.234

   Mean standard deviation across all grid points:
      u component:    0.487 m/s
      v component:    0.384 m/s
      w component:    0.237 m/s


U-component (X) statistics from the interpolated hub point:

   Mean =   9.7063 m/s
   TI   =   5.2808 %


Processing complete.  2.09832E+05 CPU seconds used.
