
This summary file was generated by TurbSim (from OpenFAST-v3.5.3) on 20-Apr-2025 at 13:01:22.


Runtime Options:

1341164796  Random seed #1
    RANLUX  Type of random number generator
         F  Output binary HH turbulence parameters?
         F  Output formatted turbulence parameters?
         F  Output AeroDyn HH files?
         T  Output AeroDyn FF files?
         F  Output BLADED FF files?
         F  Output tower data?
         F  Output HAWC FF files?
         F  Output formatted FF files?
         T  Output coherent turbulence time step file?
 0 -  NONE  IEC turbulence models scaled to exact specified standard deviation


Turbine/Model Specifications:

        37  Vertical grid-point matrix dimension
        35  Horizontal grid-point matrix dimension
     0.250  Time step [seconds]
   900.000  Analysis time [seconds]
   900.000  Usable output time [seconds]
    89.350  Hub height [m]
   167.400  Grid height [m]
   158.100  Grid width [m]
     0.000  Vertical flow angle [degrees]
     0.000  Horizontal flow angle [degrees]


Meteorological Boundary Conditions:

    TIMESR  User-input time series spectral model
       N/A  IEC standard
       N/A  IEC turbulence characteristic
       N/A  IEC turbulence type
       N/A  IEC Extreme Turbulence Model (ETM) "c" parameter [m/s]
       PL   Wind profile type
    90.000  Reference height [m]
    10.000  Reference wind speed [m/s]
       N/A  Jet height [m]
     0.120  Power law exponent
     0.030  Surface roughness length [m]


Non-IEC Meteorological Boundary Conditions:

    45.000  Site latitude [degrees]
     0.050  Gradient Richardson number
     0.480  Friction or shear velocity [m/s]
       N/A  Mixing layer depth [m]
       N/A  Mean hub u'w' Reynolds stress
       N/A  Mean hub u'v' Reynolds stress
       N/A  Mean hub v'w' Reynolds stress


Spatial Coherence Models:

       IEC  u-component coherence model
       IEC  v-component coherence model
       IEC  w-component coherence model
(   12.000, 0.353E-03)  u-component coherence parameters
(   12.000, 0.353E-03)  v-component coherence parameters
(   12.000, 0.353E-03)  w-component coherence parameters
       N/A  Coherence exponent


Coherent Turbulence Scaling Parameters:

.\EventData
            Name of the path containing the coherent turbulence data files
       les  Type of coherent turbulence data files
     0.500  Disturbance scale (ratio of wave height to rotor diameter)
     0.500  Fractional location of tower centerline from right
     1.000  Fractional location of hub height from the bottom of the dataset
    30.000  Minimum start time for coherent structures [seconds]


Profiles from User-Defined Time-Series Input:

  Height   Wind Speed   Horizontal Angle   Vertical Angle
   (m)        (m/s)          (deg)              (deg)    
  ------   ----------   ----------------   --------------
   94.00      10.00          -0.63                0.00


You have requested that the following file(s) be generated:

   /kfs3/scratch/agupta/Projects/RL_Incubator/FinalRuns_Veer/Seed4/./FFSim_Seed4/Cond00_v10.0_PL0.12_TI7.5/Case3_wdirp06/Seed_8/TurbSim/HighT10.bts (AeroDyn/TurbSim full-field wind file)


Turbulence Simulation Scaling Parameter Summary:

   Turbulence model used                            =  User-input time series
   Gradient Richardson number                       =    0.050
   Monin-Obukhov (M-O) z/L parameter                =    0.067
   Monin-Obukhov (M-O) length scale                 = 1340.250 m
   Mean wind speed at hub height                    =    9.991 m/s

   Wind profile type                                =  Power law
   Power law exponent                               =    0.120
   Mean shear across rotor disk                     =    0.019 (m/s)/m
   Assumed rotor diameter                           =  158.100 m
   Surface roughness length                         =    0.030 m

   Nyquist frequency of turbulent wind field        =    2.000 Hz

   Number of time steps in the FFT                  =     3600
   Number of time steps output                      =     3600
   Number of points simulated                       =     1296


Mean Flow Angles:

   Vertical   =   0.0 degrees
   Horizontal =   0.0 degrees

Mean Wind Speed Profile:

   Height    Wind Speed   Horizontal Angle  Vertical Angle  U-comp (X)   V-comp (Y)   W-comp (Z)
     (m)        (m/s)         (degrees)       (degrees)       (m/s)        (m/s)        (m/s)   
   ------    ----------   ----------------  --------------  ----------   ----------   ----------
    168.4       10.78            0.00            0.00         10.78         0.00         0.00
    163.7       10.74            0.00            0.00         10.74         0.00         0.00
    159.1       10.71            0.00            0.00         10.71         0.00         0.00
    154.4       10.67            0.00            0.00         10.67         0.00         0.00
    149.8       10.63            0.00            0.00         10.63         0.00         0.00
    145.1       10.59            0.00            0.00         10.59         0.00         0.00
    140.5       10.55            0.00            0.00         10.55         0.00         0.00
    135.8       10.51            0.00            0.00         10.51         0.00         0.00
    131.2       10.46            0.00            0.00         10.46         0.00         0.00
    126.5       10.42            0.00            0.00         10.42         0.00         0.00
    121.9       10.37            0.00            0.00         10.37         0.00         0.00
    117.2       10.32            0.00            0.00         10.32         0.00         0.00
    112.6       10.27            0.00            0.00         10.27         0.00         0.00
    107.9       10.22            0.00            0.00         10.22         0.00         0.00
    103.3       10.17            0.00            0.00         10.17         0.00         0.00
     98.6       10.11            0.00            0.00         10.11         0.00         0.00
     94.0       10.05            0.00            0.00         10.05         0.00         0.00
     89.3        9.99            0.00            0.00          9.99         0.00         0.00
     84.7        9.93            0.00            0.00          9.93         0.00         0.00
     80.0        9.86            0.00            0.00          9.86         0.00         0.00
     75.4        9.79            0.00            0.00          9.79         0.00         0.00
     70.7        9.72            0.00            0.00          9.72         0.00         0.00
     66.1        9.64            0.00            0.00          9.64         0.00         0.00
     61.4        9.55            0.00            0.00          9.55         0.00         0.00
     56.8        9.46            0.00            0.00          9.46         0.00         0.00
     52.1        9.37            0.00            0.00          9.37         0.00         0.00
     47.5        9.26            0.00            0.00          9.26         0.00         0.00
     42.8        9.15            0.00            0.00          9.15         0.00         0.00
     38.2        9.02            0.00            0.00          9.02         0.00         0.00
     33.5        8.88            0.00            0.00          8.88         0.00         0.00
     28.9        8.73            0.00            0.00          8.73         0.00         0.00
     24.2        8.54            0.00            0.00          8.54         0.00         0.00
     19.6        8.33            0.00            0.00          8.33         0.00         0.00
     14.9        8.06            0.00            0.00          8.06         0.00         0.00
     10.3        7.71            0.00            0.00          7.71         0.00         0.00
      5.6        7.17            0.00            0.00          7.17         0.00         0.00
      1.0        5.83            0.00            0.00          5.83         0.00         0.00


Harvested Random Seeds after Generation of the Random Numbers:

     65026800 K 1
            0 K 2


Hub-Height Simulated Turbulence Statistical Summary:

   Type of Wind        Min (m/s)   Mean (m/s)    Max (m/s)  Sigma (m/s)       TI (%)
   ----------------    ---------   ----------    ---------  -----------       ------
   Longitudinal (u)         7.80         9.99        12.32        0.775        7.761
   Lateral (v)             -2.35        -0.00         2.07        0.617        6.171
   Vertical (w)            -1.19        -0.00         1.29        0.359        3.596
   U component              7.80         9.99        12.32        0.775        7.761
   V component             -2.35        -0.00         2.07        0.617        6.171
   W component             -1.19        -0.00         1.29        0.359        3.596
   Horizontal (U&V)         7.80        10.01        12.32        0.777        7.766
   Total                    7.83        10.02        12.32        0.777        7.753

                       Min Reynolds     Mean Reynolds    Max Reynolds    Correlation
   Product             Stress (m/s)^2   Stress (m/s)^2   Stress (m/s)^2  Coefficient
   ----------------    --------------   --------------   --------------  -----------
   u'w'                     -1.755            -0.020             1.574        -0.073
   u'v'                     -1.956            -0.024             2.941        -0.051
   v'w'                     -1.780            -0.009             0.988        -0.038


   Friction Velocity (Ustar)  =      0.143 m/s
   Maximum Instantaneous TKE  =      3.103 (m/s)^2
   Maximum Instantaneous CTKE =      1.493 (m/s)^2


Grid Point Variance Summary:

   Y-coord  -79.05  -74.40  -69.75  -65.10  -60.45  -55.80  -51.15  -46.50  -41.85  -37.20  -32.55  -27.90  -23.25  -18.60  -13.95   -9.30   -4.65    0.00    4.65    9.30   13.95   18.60   23.25   27.90   32.55   37.20   41.85   46.50   51.15   55.80   60.45   65.10   69.75   74.40   79.05

   Height   Standard deviation at grid points for the u component:
   168.40    0.598   0.634   0.624   0.566   0.530   0.555   0.565   0.565   0.606   0.612   0.634   0.621   0.563   0.638   0.625   0.587   0.616   0.617   0.599   0.600   0.603   0.647   0.668   0.650   0.640   0.644   0.704   0.696   0.708   0.750   0.735   0.811   0.801   0.798   0.740
   163.75    0.596   0.599   0.580   0.555   0.575   0.543   0.533   0.572   0.598   0.620   0.615   0.600   0.593   0.614   0.650   0.629   0.636   0.636   0.584   0.563   0.656   0.695   0.704   0.650   0.670   0.694   0.701   0.690   0.687   0.698   0.762   0.801   0.853   0.826   0.773
   159.10    0.596   0.579   0.543   0.551   0.566   0.570   0.554   0.580   0.633   0.609   0.612   0.620   0.619   0.597   0.630   0.636   0.637   0.582   0.581   0.573   0.637   0.609   0.667   0.654   0.668   0.653   0.668   0.695   0.690   0.697   0.774   0.813   0.847   0.794   0.840
   154.45    0.587   0.568   0.556   0.572   0.557   0.589   0.562   0.582   0.606   0.606   0.591   0.610   0.643   0.639   0.634   0.657   0.673   0.607   0.593   0.584   0.654   0.656   0.643   0.626   0.669   0.669   0.735   0.731   0.747   0.754   0.788   0.806   0.815   0.803   0.788
   149.80    0.536   0.550   0.593   0.618   0.580   0.597   0.567   0.592   0.620   0.585   0.608   0.600   0.635   0.666   0.654   0.622   0.613   0.607   0.635   0.598   0.618   0.654   0.712   0.674   0.678   0.670   0.744   0.719   0.732   0.727   0.715   0.767   0.787   0.781   0.819
   145.15    0.532   0.551   0.590   0.582   0.626   0.619   0.635   0.637   0.648   0.620   0.621   0.588   0.606   0.615   0.653   0.626   0.588   0.581   0.614   0.611   0.660   0.681   0.725   0.726   0.697   0.678   0.778   0.726   0.782   0.759   0.779   0.762   0.771   0.789   0.856
   140.50    0.540   0.569   0.604   0.596   0.627   0.604   0.620   0.607   0.676   0.661   0.598   0.596   0.614   0.660   0.683   0.646   0.620   0.618   0.651   0.633   0.694   0.755   0.726   0.718   0.692   0.743   0.737   0.810   0.718   0.794   0.828   0.843   0.789   0.817   0.825
   135.85    0.588   0.613   0.644   0.655   0.641   0.619   0.625   0.646   0.724   0.654   0.640   0.633   0.674   0.724   0.689   0.681   0.681   0.634   0.655   0.685   0.670   0.720   0.765   0.759   0.762   0.740   0.755   0.754   0.794   0.798   0.778   0.840   0.873   0.822   0.809
   131.20    0.565   0.606   0.636   0.644   0.611   0.659   0.661   0.695   0.709   0.685   0.659   0.658   0.716   0.737   0.750   0.710   0.686   0.620   0.680   0.710   0.717   0.737   0.726   0.744   0.739   0.752   0.745   0.790   0.821   0.826   0.779   0.801   0.803   0.815   0.803
   126.55    0.570   0.587   0.608   0.636   0.663   0.657   0.666   0.670   0.673   0.677   0.661   0.724   0.736   0.739   0.750   0.724   0.703   0.642   0.701   0.717   0.723   0.767   0.725   0.727   0.727   0.732   0.796   0.825   0.804   0.796   0.809   0.803   0.796   0.828   0.831
   121.90    0.560   0.609   0.640   0.635   0.687   0.686   0.660   0.700   0.686   0.679   0.704   0.735   0.707   0.744   0.734   0.726   0.745   0.715   0.727   0.802   0.775   0.776   0.797   0.754   0.690   0.753   0.818   0.795   0.788   0.840   0.815   0.759   0.827   0.872   0.852
   117.25    0.632   0.594   0.627   0.628   0.647   0.623   0.664   0.695   0.706   0.673   0.723   0.691   0.668   0.699   0.735   0.726   0.776   0.773   0.730   0.734   0.765   0.782   0.761   0.742   0.757   0.771   0.837   0.783   0.783   0.793   0.797   0.766   0.794   0.823   0.901
   112.60    0.622   0.586   0.597   0.603   0.631   0.618   0.615   0.644   0.643   0.643   0.652   0.655   0.683   0.673   0.728   0.770   0.753   0.754   0.748   0.724   0.741   0.794   0.760   0.794   0.808   0.827   0.843   0.801   0.769   0.771   0.816   0.832   0.790   0.860   0.902
   107.95    0.667   0.625   0.622   0.613   0.559   0.601   0.633   0.572   0.588   0.618   0.678   0.669   0.736   0.703   0.725   0.775   0.783   0.738   0.794   0.769   0.743   0.760   0.806   0.798   0.850   0.876   0.828   0.773   0.749   0.746   0.738   0.744   0.744   0.820   0.851
   103.30    0.636   0.672   0.644   0.637   0.539   0.596   0.602   0.588   0.606   0.611   0.672   0.704   0.704   0.699   0.740   0.762   0.750   0.730   0.802   0.827   0.794   0.772   0.754   0.785   0.841   0.819   0.794   0.717   0.718   0.704   0.693   0.725   0.718   0.760   0.818
    98.65    0.694   0.678   0.680   0.596   0.597   0.595   0.613   0.630   0.640   0.616   0.647   0.644   0.710   0.739   0.740   0.777   0.763   0.792   0.831   0.841   0.813   0.804   0.762   0.785   0.811   0.822   0.785   0.716   0.706   0.694   0.762   0.718   0.700   0.732   0.773
    94.00    0.663   0.654   0.674   0.641   0.656   0.629   0.633   0.638   0.591   0.595   0.595   0.645   0.675   0.734   0.716   0.758   0.801   0.811   0.848   0.845   0.817   0.778   0.729   0.729   0.767   0.756   0.819   0.760   0.725   0.694   0.722   0.791   0.765   0.772   0.771
    89.35    0.632   0.656   0.659   0.614   0.629   0.600   0.626   0.646   0.568   0.593   0.617   0.642   0.636   0.685   0.723   0.734   0.758   0.775   0.842   0.815   0.796   0.763   0.727   0.667   0.729   0.782   0.830   0.784   0.782   0.733   0.739   0.796   0.822   0.782   0.842
    84.70    0.666   0.688   0.653   0.628   0.655   0.632   0.656   0.631   0.562   0.599   0.641   0.602   0.610   0.707   0.693   0.782   0.774   0.791   0.811   0.764   0.728   0.716   0.764   0.776   0.721   0.757   0.756   0.755   0.752   0.762   0.764   0.798   0.817   0.829   0.847
    80.05    0.632   0.696   0.665   0.672   0.664   0.703   0.702   0.684   0.646   0.626   0.639   0.624   0.595   0.658   0.669   0.791   0.833   0.826   0.811   0.753   0.702   0.707   0.757   0.752   0.736   0.720   0.720   0.742   0.757   0.784   0.808   0.774   0.782   0.840   0.887
    75.40    0.642   0.629   0.625   0.609   0.639   0.691   0.697   0.700   0.695   0.646   0.623   0.623   0.640   0.686   0.707   0.761   0.812   0.836   0.827   0.731   0.672   0.668   0.719   0.709   0.635   0.664   0.684   0.724   0.720   0.767   0.847   0.827   0.864   0.878   0.898
    70.75    0.617   0.582   0.633   0.635   0.594   0.681   0.694   0.686   0.659   0.586   0.616   0.651   0.630   0.696   0.741   0.760   0.780   0.813   0.764   0.764   0.703   0.708   0.667   0.651   0.651   0.692   0.749   0.769   0.783   0.788   0.850   0.858   0.888   0.901   0.906
    66.10    0.634   0.602   0.634   0.565   0.621   0.623   0.655   0.652   0.600   0.619   0.600   0.598   0.648   0.661   0.697   0.745   0.747   0.754   0.803   0.764   0.741   0.695   0.685   0.660   0.721   0.737   0.725   0.792   0.775   0.810   0.856   0.815   0.838   0.869   0.852
    61.45    0.622   0.620   0.639   0.617   0.634   0.621   0.654   0.640   0.603   0.675   0.634   0.626   0.697   0.676   0.716   0.713   0.744   0.756   0.770   0.761   0.722   0.644   0.612   0.677   0.676   0.722   0.759   0.810   0.772   0.765   0.797   0.831   0.786   0.821   0.877
    56.80    0.651   0.645   0.642   0.668   0.627   0.642   0.696   0.625   0.668   0.656   0.719   0.687   0.689   0.705   0.705   0.758   0.758   0.758   0.756   0.754   0.709   0.624   0.628   0.640   0.664   0.697   0.721   0.768   0.771   0.786   0.784   0.762   0.787   0.769   0.766
    52.15    0.634   0.662   0.665   0.646   0.628   0.655   0.658   0.646   0.677   0.690   0.716   0.716   0.706   0.723   0.754   0.759   0.747   0.762   0.750   0.747   0.657   0.599   0.635   0.625   0.643   0.703   0.702   0.711   0.691   0.721   0.788   0.742   0.787   0.792   0.721
    47.50    0.654   0.621   0.680   0.633   0.714   0.703   0.679   0.670   0.691   0.673   0.705   0.726   0.693   0.733   0.783   0.794   0.777   0.724   0.745   0.697   0.689   0.665   0.663   0.665   0.660   0.639   0.688   0.694   0.701   0.722   0.710   0.752   0.763   0.758   0.715
    42.85    0.640   0.666   0.679   0.696   0.674   0.723   0.726   0.692   0.698   0.685   0.727   0.700   0.676   0.745   0.767   0.790   0.759   0.683   0.712   0.701   0.677   0.648   0.638   0.632   0.641   0.609   0.664   0.666   0.700   0.636   0.656   0.711   0.781   0.755   0.740
    38.20    0.661   0.683   0.669   0.633   0.692   0.727   0.702   0.730   0.703   0.696   0.727   0.781   0.730   0.746   0.786   0.795   0.771   0.747   0.735   0.718   0.666   0.645   0.624   0.620   0.654   0.611   0.665   0.696   0.712   0.663   0.674   0.708   0.732   0.730   0.751
    33.55    0.620   0.672   0.644   0.622   0.653   0.681   0.666   0.682   0.693   0.685   0.744   0.801   0.789   0.770   0.796   0.777   0.708   0.762   0.720   0.732   0.716   0.685   0.618   0.668   0.632   0.597   0.636   0.625   0.668   0.671   0.695   0.723   0.719   0.770   0.747
    28.90    0.625   0.602   0.589   0.653   0.688   0.695   0.706   0.659   0.650   0.709   0.749   0.785   0.777   0.781   0.735   0.750   0.723   0.739   0.709   0.662   0.621   0.636   0.594   0.636   0.618   0.622   0.617   0.602   0.638   0.650   0.706   0.729   0.737   0.733   0.802
    24.25    0.685   0.661   0.654   0.726   0.716   0.725   0.656   0.657   0.672   0.709   0.738   0.775   0.760   0.769   0.787   0.728   0.717   0.736   0.712   0.624   0.671   0.661   0.644   0.660   0.618   0.601   0.604   0.634   0.663   0.668   0.679   0.703   0.680   0.767   0.816
    19.60    0.742   0.693   0.667   0.677   0.724   0.720   0.659   0.660   0.651   0.705   0.704   0.721   0.759   0.728   0.786   0.761   0.696   0.699   0.680   0.663   0.643   0.694   0.681   0.668   0.698   0.630   0.580   0.585   0.616   0.648   0.684   0.715   0.711   0.756   0.815
    14.95    0.660   0.673   0.658   0.641   0.639   0.671   0.692   0.701   0.672   0.686   0.692   0.657   0.727   0.714   0.730   0.690   0.653   0.693   0.668   0.658   0.635   0.680   0.673   0.677   0.675   0.640   0.601   0.649   0.616   0.670   0.703   0.704   0.740   0.757   0.729
    10.30    0.649   0.644   0.683   0.708   0.644   0.626   0.665   0.673   0.710   0.707   0.718   0.704   0.731   0.703   0.687   0.688   0.640   0.665   0.645   0.624   0.662   0.685   0.626   0.701   0.706   0.704   0.676   0.685   0.636   0.667   0.739   0.744   0.747   0.710   0.727
     5.65    0.677   0.698   0.675   0.670   0.639   0.630   0.682   0.730   0.737   0.715   0.709   0.671   0.644   0.670   0.663   0.652   0.642   0.637   0.699   0.626   0.622   0.679   0.680   0.711   0.722   0.754   0.695   0.670   0.667   0.624   0.700   0.745   0.723   0.698   0.694
     1.00    0.649   0.685   0.703   0.713   0.681   0.679   0.704   0.747   0.703   0.694   0.722   0.711   0.662   0.650   0.668   0.672   0.669   0.702   0.697   0.634   0.679   0.696   0.693   0.704   0.739   0.743   0.684   0.684   0.657   0.666   0.665   0.732   0.752   0.661   0.656

   Height   Standard deviation at grid points for the v component:
   168.40    0.597   0.672   0.666   0.655   0.622   0.610   0.634   0.597   0.620   0.648   0.599   0.626   0.624   0.614   0.607   0.603   0.590   0.582   0.553   0.562   0.595   0.563   0.534   0.536   0.534   0.557   0.525   0.541   0.564   0.589   0.557   0.551   0.555   0.548   0.536
   163.75    0.611   0.635   0.657   0.632   0.655   0.658   0.646   0.621   0.649   0.626   0.580   0.580   0.579   0.631   0.637   0.613   0.584   0.577   0.565   0.547   0.586   0.573   0.543   0.523   0.502   0.524   0.526   0.541   0.578   0.587   0.576   0.563   0.561   0.563   0.538
   159.10    0.617   0.607   0.625   0.652   0.665   0.651   0.631   0.648   0.635   0.617   0.574   0.575   0.606   0.626   0.620   0.603   0.571   0.583   0.581   0.573   0.555   0.548   0.529   0.502   0.520   0.507   0.526   0.540   0.563   0.578   0.625   0.593   0.587   0.591   0.586
   154.45    0.613   0.598   0.595   0.603   0.651   0.656   0.627   0.654   0.625   0.609   0.582   0.555   0.555   0.589   0.595   0.610   0.560   0.557   0.547   0.576   0.562   0.556   0.521   0.533   0.495   0.513   0.531   0.558   0.573   0.574   0.607   0.610   0.580   0.597   0.568
   149.80    0.616   0.609   0.593   0.617   0.608   0.612   0.615   0.654   0.630   0.637   0.608   0.575   0.536   0.542   0.592   0.599   0.586   0.581   0.567   0.565   0.524   0.509   0.511   0.526   0.521   0.524   0.536   0.542   0.569   0.579   0.579   0.616   0.614   0.588   0.584
   145.15    0.649   0.623   0.590   0.597   0.614   0.671   0.655   0.657   0.617   0.626   0.620   0.595   0.565   0.581   0.582   0.595   0.591   0.599   0.568   0.562   0.538   0.529   0.541   0.521   0.530   0.506   0.518   0.517   0.558   0.582   0.581   0.601   0.596   0.582   0.561
   140.50    0.656   0.604   0.620   0.621   0.640   0.648   0.651   0.626   0.619   0.634   0.602   0.608   0.607   0.609   0.614   0.588   0.586   0.593   0.583   0.563   0.534   0.531   0.558   0.552   0.564   0.568   0.536   0.576   0.582   0.549   0.572   0.579   0.589   0.572   0.583
   135.85    0.655   0.640   0.625   0.642   0.642   0.652   0.609   0.641   0.603   0.601   0.588   0.573   0.555   0.583   0.611   0.607   0.596   0.602   0.592   0.575   0.566   0.549   0.590   0.553   0.568   0.586   0.566   0.561   0.578   0.569   0.567   0.551   0.535   0.571   0.538
   131.20    0.650   0.632   0.646   0.680   0.609   0.605   0.589   0.607   0.576   0.569   0.567   0.572   0.568   0.596   0.639   0.655   0.642   0.641   0.618   0.590   0.587   0.553   0.589   0.612   0.582   0.585   0.566   0.571   0.577   0.584   0.556   0.551   0.512   0.552   0.573
   126.55    0.627   0.638   0.654   0.651   0.603   0.573   0.591   0.566   0.540   0.574   0.580   0.586   0.546   0.589   0.617   0.655   0.655   0.667   0.663   0.608   0.599   0.586   0.586   0.609   0.599   0.587   0.557   0.590   0.578   0.568   0.545   0.525   0.517   0.523   0.551
   121.90    0.603   0.620   0.640   0.605   0.568   0.552   0.568   0.568   0.564   0.599   0.587   0.581   0.574   0.601   0.628   0.663   0.654   0.661   0.658   0.618   0.626   0.588   0.594   0.591   0.612   0.549   0.544   0.556   0.559   0.561   0.567   0.553   0.525   0.528   0.560
   117.25    0.576   0.578   0.579   0.569   0.553   0.555   0.545   0.560   0.543   0.554   0.601   0.585   0.594   0.614   0.598   0.613   0.621   0.644   0.625   0.609   0.617   0.592   0.601   0.612   0.610   0.571   0.567   0.575   0.540   0.579   0.566   0.566   0.529   0.530   0.554
   112.60    0.568   0.567   0.554   0.527   0.543   0.557   0.568   0.589   0.583   0.596   0.582   0.603   0.638   0.586   0.564   0.592   0.633   0.621   0.587   0.611   0.595   0.559   0.574   0.623   0.620   0.571   0.597   0.580   0.569   0.585   0.585   0.570   0.528   0.543   0.568
   107.95    0.547   0.585   0.551   0.568   0.554   0.561   0.571   0.574   0.579   0.587   0.590   0.603   0.577   0.551   0.583   0.594   0.624   0.604   0.567   0.534   0.572   0.568   0.582   0.624   0.623   0.578   0.572   0.579   0.594   0.607   0.598   0.556   0.538   0.555   0.545
   103.30    0.574   0.563   0.569   0.563   0.552   0.580   0.585   0.558   0.581   0.571   0.575   0.594   0.563   0.578   0.562   0.590   0.586   0.579   0.564   0.546   0.550   0.560   0.570   0.613   0.612   0.606   0.590   0.571   0.610   0.615   0.564   0.593   0.576   0.570   0.526
    98.65    0.572   0.573   0.584   0.560   0.552   0.599   0.572   0.589   0.597   0.622   0.606   0.615   0.589   0.584   0.589   0.620   0.596   0.580   0.596   0.553   0.552   0.580   0.583   0.593   0.619   0.623   0.615   0.607   0.626   0.585   0.587   0.617   0.628   0.585   0.572
    94.00    0.595   0.577   0.593   0.592   0.587   0.598   0.595   0.572   0.607   0.620   0.603   0.605   0.602   0.571   0.599   0.575   0.590   0.626   0.606   0.593   0.578   0.608   0.583   0.579   0.633   0.663   0.613   0.599   0.605   0.600   0.612   0.621   0.639   0.594   0.583
    89.35    0.620   0.588   0.589   0.588   0.575   0.569   0.570   0.571   0.606   0.644   0.611   0.616   0.596   0.587   0.600   0.595   0.606   0.617   0.607   0.617   0.612   0.599   0.573   0.581   0.642   0.646   0.615   0.625   0.634   0.602   0.611   0.635   0.634   0.602   0.587
    84.70    0.612   0.600   0.626   0.579   0.543   0.562   0.603   0.596   0.625   0.666   0.638   0.621   0.625   0.592   0.616   0.621   0.624   0.615   0.616   0.642   0.625   0.613   0.591   0.631   0.614   0.626   0.637   0.606   0.596   0.605   0.625   0.665   0.654   0.644   0.606
    80.05    0.579   0.575   0.582   0.586   0.566   0.560   0.601   0.579   0.593   0.643   0.649   0.626   0.652   0.626   0.595   0.619   0.615   0.582   0.601   0.623   0.579   0.605   0.608   0.609   0.621   0.628   0.658   0.621   0.636   0.651   0.642   0.679   0.668   0.646   0.646
    75.40    0.566   0.529   0.571   0.600   0.583   0.600   0.556   0.613   0.630   0.614   0.649   0.660   0.664   0.643   0.628   0.652   0.638   0.590   0.581   0.590   0.579   0.603   0.608   0.598   0.610   0.642   0.686   0.661   0.656   0.687   0.704   0.722   0.695   0.685   0.642
    70.75    0.573   0.578   0.600   0.612   0.631   0.632   0.603   0.598   0.585   0.618   0.637   0.625   0.655   0.648   0.647   0.607   0.607   0.561   0.600   0.583   0.593   0.609   0.605   0.622   0.641   0.693   0.683   0.687   0.667   0.675   0.702   0.726   0.724   0.710   0.692
    66.10    0.571   0.585   0.621   0.632   0.630   0.654   0.596   0.617   0.585   0.608   0.615   0.637   0.618   0.654   0.635   0.639   0.577   0.569   0.579   0.587   0.633   0.614   0.613   0.637   0.630   0.652   0.652   0.675   0.678   0.687   0.682   0.705   0.752   0.712   0.748
    61.45    0.602   0.609   0.596   0.625   0.623   0.636   0.625   0.611   0.607   0.629   0.646   0.657   0.649   0.644   0.639   0.620   0.573   0.586   0.566   0.580   0.600   0.600   0.621   0.628   0.672   0.630   0.621   0.662   0.672   0.700   0.694   0.685   0.708   0.728   0.748
    56.80    0.629   0.607   0.605   0.626   0.631   0.633   0.627   0.612   0.603   0.653   0.681   0.678   0.652   0.656   0.639   0.619   0.565   0.600   0.583   0.613   0.604   0.624   0.644   0.623   0.644   0.647   0.634   0.670   0.671   0.705   0.689   0.714   0.697   0.723   0.700
    52.15    0.660   0.659   0.653   0.622   0.619   0.615   0.628   0.615   0.647   0.664   0.666   0.689   0.675   0.640   0.642   0.653   0.609   0.608   0.639   0.612   0.614   0.631   0.643   0.662   0.664   0.697   0.706   0.676   0.674   0.715   0.722   0.692   0.693   0.710   0.696
    47.50    0.639   0.645   0.645   0.623   0.643   0.659   0.636   0.660   0.688   0.676   0.681   0.684   0.649   0.667   0.673   0.653   0.641   0.618   0.616   0.625   0.690   0.665   0.678   0.684   0.716   0.725   0.726   0.688   0.683   0.696   0.713   0.702   0.692   0.710   0.714
    42.85    0.674   0.654   0.632   0.599   0.644   0.651   0.649   0.698   0.684   0.665   0.699   0.676   0.666   0.667   0.665   0.638   0.635   0.636   0.636   0.630   0.683   0.674   0.688   0.690   0.693   0.739   0.734   0.701   0.681   0.701   0.713   0.684   0.687   0.696   0.719
    38.20    0.668   0.631   0.631   0.642   0.645   0.659   0.663   0.688   0.700   0.705   0.696   0.706   0.699   0.677   0.651   0.652   0.621   0.658   0.650   0.679   0.670   0.670   0.670   0.659   0.667   0.684   0.706   0.724   0.670   0.706   0.693   0.693   0.688   0.691   0.701
    33.55    0.694   0.651   0.636   0.604   0.623   0.637   0.656   0.671   0.657   0.664   0.660   0.683   0.658   0.679   0.641   0.636   0.634   0.666   0.670   0.698   0.698   0.696   0.677   0.684   0.689   0.702   0.750   0.714   0.695   0.682   0.678   0.690   0.691   0.644   0.651
    28.90    0.649   0.640   0.641   0.627   0.639   0.644   0.652   0.656   0.649   0.657   0.658   0.652   0.671   0.659   0.631   0.634   0.660   0.693   0.706   0.715   0.708   0.724   0.697   0.689   0.698   0.718   0.694   0.710   0.678   0.660   0.671   0.649   0.648   0.671   0.669
    24.25    0.636   0.639   0.644   0.662   0.666   0.632   0.620   0.648   0.644   0.675   0.675   0.673   0.640   0.647   0.651   0.655   0.678   0.711   0.742   0.720   0.714   0.660   0.701   0.700   0.701   0.694   0.686   0.704   0.685   0.671   0.670   0.642   0.654   0.678   0.655
    19.60    0.672   0.648   0.648   0.659   0.647   0.627   0.585   0.613   0.637   0.643   0.643   0.658   0.673   0.671   0.667   0.687   0.731   0.734   0.762   0.720   0.706   0.680   0.692   0.698   0.712   0.692   0.694   0.701   0.706   0.719   0.678   0.657   0.627   0.636   0.644
    14.95    0.646   0.611   0.639   0.658   0.604   0.633   0.619   0.594   0.635   0.648   0.656   0.679   0.711   0.688   0.668   0.690   0.706   0.717   0.752   0.740   0.718   0.689   0.721   0.712   0.726   0.721   0.701   0.670   0.685   0.681   0.664   0.672   0.632   0.668   0.669
    10.30    0.647   0.622   0.625   0.626   0.647   0.644   0.655   0.660   0.628   0.613   0.647   0.642   0.662   0.672   0.688   0.688   0.708   0.702   0.704   0.714   0.742   0.754   0.720   0.714   0.719   0.690   0.690   0.697   0.680   0.660   0.648   0.676   0.657   0.671   0.681
     5.65    0.646   0.621   0.630   0.627   0.650   0.658   0.631   0.648   0.656   0.649   0.617   0.636   0.625   0.629   0.663   0.690   0.689   0.717   0.698   0.717   0.776   0.765   0.771   0.756   0.715   0.722   0.678   0.688   0.662   0.656   0.661   0.668   0.683   0.685   0.662
     1.00    0.628   0.624   0.615   0.630   0.639   0.683   0.665   0.622   0.646   0.611   0.596   0.593   0.588   0.625   0.623   0.660   0.689   0.696   0.729   0.735   0.745   0.749   0.758   0.733   0.704   0.709   0.695   0.673   0.637   0.633   0.634   0.654   0.667   0.679   0.686

   Height   Standard deviation at grid points for the w component:
   168.40    0.365   0.362   0.379   0.376   0.381   0.365   0.368   0.352   0.351   0.373   0.375   0.374   0.386   0.375   0.372   0.364   0.354   0.355   0.337   0.341   0.359   0.344   0.339   0.350   0.375   0.364   0.362   0.355   0.346   0.349   0.348   0.351   0.353   0.362   0.354
   163.75    0.364   0.370   0.378   0.375   0.362   0.356   0.363   0.353   0.347   0.373   0.382   0.375   0.370   0.381   0.372   0.380   0.376   0.368   0.346   0.345   0.353   0.344   0.344   0.343   0.352   0.355   0.361   0.348   0.368   0.362   0.350   0.349   0.351   0.357   0.357
   159.10    0.370   0.356   0.380   0.380   0.368   0.363   0.367   0.367   0.359   0.369   0.376   0.371   0.367   0.375   0.369   0.362   0.365   0.353   0.358   0.363   0.345   0.335   0.344   0.358   0.361   0.366   0.365   0.364   0.366   0.359   0.353   0.349   0.354   0.338   0.338
   154.45    0.394   0.387   0.392   0.401   0.372   0.368   0.352   0.363   0.355   0.353   0.379   0.371   0.371   0.372   0.359   0.363   0.366   0.350   0.355   0.352   0.356   0.343   0.347   0.362   0.357   0.358   0.366   0.350   0.351   0.340   0.353   0.349   0.333   0.345   0.343
   149.80    0.390   0.394   0.400   0.392   0.375   0.384   0.364   0.348   0.347   0.366   0.366   0.382   0.383   0.371   0.385   0.364   0.348   0.346   0.351   0.346   0.347   0.350   0.351   0.350   0.355   0.358   0.354   0.354   0.347   0.360   0.351   0.347   0.346   0.354   0.355
   145.15    0.378   0.387   0.399   0.394   0.384   0.383   0.359   0.368   0.355   0.373   0.366   0.369   0.367   0.350   0.358   0.364   0.363   0.339   0.343   0.348   0.359   0.363   0.349   0.354   0.356   0.353   0.353   0.349   0.358   0.363   0.357   0.349   0.353   0.355   0.359
   140.50    0.372   0.386   0.388   0.392   0.419   0.388   0.383   0.374   0.379   0.380   0.366   0.360   0.366   0.349   0.352   0.358   0.352   0.353   0.350   0.343   0.359   0.351   0.358   0.360   0.348   0.356   0.364   0.354   0.357   0.357   0.355   0.371   0.357   0.357   0.349
   135.85    0.371   0.373   0.383   0.403   0.423   0.403   0.393   0.379   0.376   0.366   0.366   0.370   0.378   0.367   0.347   0.347   0.358   0.348   0.339   0.355   0.366   0.346   0.357   0.352   0.369   0.369   0.367   0.368   0.370   0.361   0.355   0.356   0.346   0.349   0.344
   131.20    0.376   0.373   0.376   0.388   0.400   0.392   0.386   0.388   0.365   0.366   0.365   0.359   0.371   0.361   0.351   0.346   0.360   0.361   0.345   0.357   0.360   0.351   0.361   0.355   0.352   0.357   0.377   0.361   0.363   0.364   0.357   0.350   0.352   0.341   0.340
   126.55    0.397   0.375   0.385   0.388   0.385   0.401   0.395   0.388   0.369   0.372   0.378   0.365   0.362   0.354   0.351   0.350   0.364   0.358   0.363   0.366   0.353   0.365   0.357   0.360   0.371   0.371   0.379   0.384   0.365   0.355   0.350   0.339   0.349   0.353   0.340
   121.90    0.388   0.379   0.381   0.388   0.383   0.404   0.397   0.391   0.372   0.376   0.378   0.361   0.350   0.355   0.349   0.351   0.365   0.367   0.359   0.359   0.362   0.369   0.361   0.352   0.366   0.383   0.389   0.376   0.380   0.368   0.354   0.345   0.353   0.354   0.337
   117.25    0.370   0.356   0.361   0.369   0.384   0.404   0.406   0.399   0.377   0.374   0.364   0.359   0.359   0.367   0.355   0.351   0.361   0.353   0.352   0.350   0.362   0.364   0.361   0.353   0.364   0.370   0.371   0.375   0.377   0.368   0.357   0.354   0.348   0.336   0.324
   112.60    0.362   0.353   0.368   0.367   0.385   0.400   0.413   0.411   0.371   0.358   0.353   0.361   0.364   0.358   0.353   0.354   0.357   0.362   0.346   0.342   0.342   0.354   0.359   0.357   0.358   0.355   0.352   0.352   0.357   0.361   0.358   0.357   0.329   0.331   0.334
   107.95    0.372   0.366   0.365   0.359   0.377   0.387   0.392   0.396   0.372   0.365   0.370   0.363   0.366   0.348   0.341   0.348   0.356   0.339   0.343   0.347   0.345   0.358   0.368   0.353   0.362   0.354   0.348   0.363   0.345   0.345   0.352   0.345   0.341   0.323   0.331
   103.30    0.370   0.353   0.349   0.358   0.378   0.378   0.388   0.380   0.368   0.353   0.373   0.375   0.363   0.349   0.354   0.369   0.349   0.364   0.353   0.345   0.337   0.345   0.341   0.347   0.354   0.357   0.361   0.361   0.360   0.349   0.350   0.339   0.343   0.325   0.322
    98.65    0.356   0.356   0.348   0.352   0.357   0.377   0.380   0.380   0.372   0.355   0.357   0.347   0.363   0.360   0.350   0.362   0.348   0.344   0.357   0.352   0.339   0.343   0.347   0.357   0.362   0.350   0.357   0.356   0.358   0.354   0.352   0.355   0.332   0.331   0.342
    94.00    0.356   0.348   0.362   0.355   0.364   0.356   0.364   0.361   0.369   0.365   0.361   0.354   0.351   0.353   0.361   0.365   0.364   0.342   0.352   0.356   0.360   0.349   0.351   0.357   0.349   0.360   0.345   0.334   0.346   0.352   0.347   0.349   0.324   0.332   0.350
    89.35    0.360   0.362   0.363   0.366   0.367   0.358   0.368   0.370   0.363   0.357   0.361   0.353   0.354   0.348   0.358   0.361   0.360   0.359   0.363   0.361   0.353   0.363   0.361   0.359   0.377   0.365   0.360   0.345   0.358   0.354   0.357   0.358   0.335   0.343   0.344
    84.70    0.347   0.343   0.359   0.345   0.374   0.355   0.362   0.358   0.371   0.361   0.369   0.356   0.348   0.351   0.344   0.343   0.350   0.362   0.357   0.349   0.361   0.362   0.362   0.359   0.358   0.367   0.362   0.350   0.363   0.351   0.357   0.344   0.340   0.339   0.329
    80.05    0.340   0.347   0.350   0.357   0.361   0.369   0.362   0.381   0.365   0.359   0.359   0.359   0.343   0.346   0.348   0.351   0.340   0.349   0.352   0.376   0.365   0.361   0.348   0.348   0.343   0.350   0.363   0.354   0.352   0.355   0.351   0.349   0.345   0.342   0.329
    75.40    0.347   0.348   0.358   0.352   0.359   0.358   0.358   0.363   0.355   0.357   0.349   0.356   0.344   0.344   0.350   0.331   0.332   0.337   0.348   0.356   0.358   0.345   0.344   0.345   0.346   0.356   0.367   0.375   0.365   0.363   0.361   0.361   0.351   0.348   0.348
    70.75    0.337   0.335   0.346   0.348   0.350   0.358   0.359   0.363   0.357   0.358   0.362   0.344   0.351   0.344   0.344   0.337   0.343   0.340   0.337   0.355   0.346   0.358   0.346   0.342   0.346   0.353   0.360   0.356   0.361   0.374   0.366   0.354   0.355   0.353   0.338
    66.10    0.339   0.331   0.337   0.353   0.343   0.341   0.353   0.349   0.359   0.367   0.363   0.350   0.346   0.340   0.345   0.357   0.342   0.365   0.361   0.369   0.352   0.352   0.346   0.344   0.343   0.355   0.350   0.343   0.346   0.361   0.367   0.355   0.360   0.353   0.362
    61.45    0.330   0.334   0.334   0.341   0.340   0.344   0.366   0.364   0.378   0.368   0.363   0.365   0.357   0.362   0.344   0.349   0.359   0.363   0.362   0.362   0.359   0.342   0.340   0.341   0.346   0.343   0.349   0.338   0.353   0.342   0.343   0.350   0.348   0.352   0.358
    56.80    0.340   0.333   0.343   0.336   0.350   0.351   0.355   0.367   0.366   0.354   0.361   0.365   0.358   0.360   0.347   0.351   0.346   0.379   0.366   0.350   0.353   0.342   0.336   0.333   0.339   0.335   0.333   0.332   0.346   0.341   0.348   0.340   0.357   0.347   0.339
    52.15    0.346   0.361   0.351   0.338   0.344   0.357   0.359   0.356   0.366   0.353   0.349   0.353   0.362   0.349   0.346   0.358   0.351   0.366   0.343   0.349   0.343   0.352   0.356   0.341   0.356   0.367   0.349   0.338   0.338   0.340   0.351   0.356   0.355   0.355   0.342
    47.50    0.358   0.358   0.346   0.343   0.340   0.343   0.343   0.353   0.336   0.345   0.331   0.335   0.343   0.357   0.352   0.357   0.347   0.356   0.345   0.339   0.339   0.353   0.346   0.363   0.347   0.350   0.355   0.347   0.337   0.339   0.341   0.353   0.350   0.357   0.351
    42.85    0.352   0.348   0.341   0.338   0.354   0.339   0.344   0.351   0.341   0.339   0.332   0.329   0.348   0.355   0.352   0.354   0.335   0.347   0.349   0.351   0.345   0.353   0.358   0.366   0.356   0.339   0.356   0.346   0.348   0.340   0.332   0.340   0.349   0.339   0.343
    38.20    0.361   0.352   0.361   0.338   0.343   0.354   0.353   0.354   0.330   0.337   0.344   0.343   0.350   0.351   0.351   0.346   0.346   0.356   0.349   0.362   0.362   0.358   0.363   0.358   0.342   0.357   0.353   0.348   0.352   0.342   0.329   0.338   0.338   0.338   0.344
    33.55    0.373   0.349   0.356   0.351   0.335   0.348   0.350   0.350   0.323   0.329   0.337   0.341   0.340   0.347   0.362   0.360   0.357   0.353   0.364   0.354   0.357   0.355   0.365   0.366   0.355   0.354   0.356   0.345   0.337   0.340   0.335   0.335   0.347   0.332   0.345
    28.90    0.375   0.360   0.367   0.360   0.357   0.364   0.354   0.342   0.329   0.337   0.343   0.348   0.353   0.329   0.340   0.361   0.365   0.369   0.365   0.377   0.360   0.363   0.360   0.348   0.348   0.357   0.352   0.341   0.343   0.355   0.346   0.340   0.348   0.335   0.355
    24.25    0.367   0.379   0.375   0.372   0.367   0.356   0.367   0.336   0.328   0.344   0.350   0.360   0.358   0.343   0.340   0.338   0.347   0.371   0.371   0.370   0.371   0.353   0.343   0.347   0.354   0.353   0.352   0.349   0.351   0.355   0.357   0.345   0.342   0.360   0.357
    19.60    0.382   0.375   0.386   0.390   0.375   0.355   0.349   0.330   0.340   0.351   0.352   0.373   0.356   0.344   0.343   0.340   0.340   0.367   0.381   0.367   0.354   0.350   0.340   0.334   0.351   0.349   0.346   0.337   0.348   0.344   0.339   0.348   0.333   0.353   0.355
    14.95    0.377   0.358   0.376   0.375   0.359   0.350   0.343   0.345   0.342   0.357   0.360   0.363   0.360   0.353   0.350   0.360   0.364   0.375   0.370   0.370   0.346   0.359   0.347   0.369   0.348   0.341   0.342   0.349   0.334   0.348   0.359   0.349   0.353   0.360   0.361
    10.30    0.367   0.373   0.377   0.368   0.366   0.355   0.361   0.367   0.366   0.361   0.363   0.358   0.368   0.363   0.354   0.361   0.344   0.366   0.373   0.346   0.360   0.347   0.364   0.365   0.359   0.360   0.364   0.350   0.340   0.346   0.342   0.357   0.359   0.348   0.353
     5.65    0.353   0.370   0.365   0.351   0.369   0.378   0.370   0.363   0.378   0.372   0.358   0.366   0.372   0.360   0.353   0.354   0.358   0.370   0.370   0.358   0.350   0.353   0.362   0.361   0.366   0.358   0.346   0.358   0.362   0.346   0.337   0.345   0.350   0.355   0.346
     1.00    0.363   0.350   0.370   0.374   0.376   0.389   0.356   0.370   0.381   0.366   0.374   0.374   0.361   0.378   0.364   0.358   0.355   0.366   0.360   0.353   0.354   0.353   0.377   0.359   0.359   0.374   0.370   0.377   0.361   0.348   0.344   0.359   0.348   0.363   0.355

   Mean standard deviation across all grid points:
      u component:    0.698 m/s
      v component:    0.623 m/s
      w component:    0.357 m/s


U-component (X) statistics from the interpolated hub point:

   Mean =   9.9913 m/s
   TI   =   7.7611 %


Processing complete.  6243.5 CPU seconds used.
