
This summary file was generated by TurbSim (from OpenFAST-v3.5.3) on 20-Apr-2025 at 13:06:16.


Runtime Options:

1341164796  Random seed #1
    RANLUX  Type of random number generator
         F  Output binary HH turbulence parameters?
         F  Output formatted turbulence parameters?
         F  Output AeroDyn HH files?
         T  Output AeroDyn FF files?
         F  Output BLADED FF files?
         F  Output tower data?
         F  Output HAWC FF files?
         F  Output formatted FF files?
         T  Output coherent turbulence time step file?
 0 -  NONE  IEC turbulence models scaled to exact specified standard deviation


Turbine/Model Specifications:

        37  Vertical grid-point matrix dimension
        35  Horizontal grid-point matrix dimension
     0.250  Time step [seconds]
   900.000  Analysis time [seconds]
   900.000  Usable output time [seconds]
    89.350  Hub height [m]
   167.400  Grid height [m]
   158.100  Grid width [m]
     0.000  Vertical flow angle [degrees]
     0.000  Horizontal flow angle [degrees]


Meteorological Boundary Conditions:

    TIMESR  User-input time series spectral model
       N/A  IEC standard
       N/A  IEC turbulence characteristic
       N/A  IEC turbulence type
       N/A  IEC Extreme Turbulence Model (ETM) "c" parameter [m/s]
       PL   Wind profile type
    90.000  Reference height [m]
    10.000  Reference wind speed [m/s]
       N/A  Jet height [m]
     0.120  Power law exponent
     0.030  Surface roughness length [m]


Non-IEC Meteorological Boundary Conditions:

    45.000  Site latitude [degrees]
     0.050  Gradient Richardson number
     0.480  Friction or shear velocity [m/s]
       N/A  Mixing layer depth [m]
       N/A  Mean hub u'w' Reynolds stress
       N/A  Mean hub u'v' Reynolds stress
       N/A  Mean hub v'w' Reynolds stress


Spatial Coherence Models:

       IEC  u-component coherence model
       IEC  v-component coherence model
       IEC  w-component coherence model
(   12.000, 0.353E-03)  u-component coherence parameters
(   12.000, 0.353E-03)  v-component coherence parameters
(   12.000, 0.353E-03)  w-component coherence parameters
       N/A  Coherence exponent


Coherent Turbulence Scaling Parameters:

.\EventData
            Name of the path containing the coherent turbulence data files
       les  Type of coherent turbulence data files
     0.500  Disturbance scale (ratio of wave height to rotor diameter)
     0.500  Fractional location of tower centerline from right
     1.000  Fractional location of hub height from the bottom of the dataset
    30.000  Minimum start time for coherent structures [seconds]


Profiles from User-Defined Time-Series Input:

  Height   Wind Speed   Horizontal Angle   Vertical Angle
   (m)        (m/s)          (deg)              (deg)    
  ------   ----------   ----------------   --------------
   94.00      10.00          -0.63                0.00


You have requested that the following file(s) be generated:

   /kfs3/scratch/agupta/Projects/RL_Incubator/FinalRuns_Veer/Seed4/./FFSim_Seed4/Cond00_v10.0_PL0.12_TI7.5/Case3_wdirp06/Seed_8/TurbSim/HighT15.bts (AeroDyn/TurbSim full-field wind file)


Turbulence Simulation Scaling Parameter Summary:

   Turbulence model used                            =  User-input time series
   Gradient Richardson number                       =    0.050
   Monin-Obukhov (M-O) z/L parameter                =    0.067
   Monin-Obukhov (M-O) length scale                 = 1340.250 m
   Mean wind speed at hub height                    =    9.991 m/s

   Wind profile type                                =  Power law
   Power law exponent                               =    0.120
   Mean shear across rotor disk                     =    0.019 (m/s)/m
   Assumed rotor diameter                           =  158.100 m
   Surface roughness length                         =    0.030 m

   Nyquist frequency of turbulent wind field        =    2.000 Hz

   Number of time steps in the FFT                  =     3600
   Number of time steps output                      =     3600
   Number of points simulated                       =     1296


Mean Flow Angles:

   Vertical   =   0.0 degrees
   Horizontal =   0.0 degrees

Mean Wind Speed Profile:

   Height    Wind Speed   Horizontal Angle  Vertical Angle  U-comp (X)   V-comp (Y)   W-comp (Z)
     (m)        (m/s)         (degrees)       (degrees)       (m/s)        (m/s)        (m/s)   
   ------    ----------   ----------------  --------------  ----------   ----------   ----------
    168.4       10.78            0.00            0.00         10.78         0.00         0.00
    163.7       10.74            0.00            0.00         10.74         0.00         0.00
    159.1       10.71            0.00            0.00         10.71         0.00         0.00
    154.4       10.67            0.00            0.00         10.67         0.00         0.00
    149.8       10.63            0.00            0.00         10.63         0.00         0.00
    145.1       10.59            0.00            0.00         10.59         0.00         0.00
    140.5       10.55            0.00            0.00         10.55         0.00         0.00
    135.8       10.51            0.00            0.00         10.51         0.00         0.00
    131.2       10.46            0.00            0.00         10.46         0.00         0.00
    126.5       10.42            0.00            0.00         10.42         0.00         0.00
    121.9       10.37            0.00            0.00         10.37         0.00         0.00
    117.2       10.32            0.00            0.00         10.32         0.00         0.00
    112.6       10.27            0.00            0.00         10.27         0.00         0.00
    107.9       10.22            0.00            0.00         10.22         0.00         0.00
    103.3       10.17            0.00            0.00         10.17         0.00         0.00
     98.6       10.11            0.00            0.00         10.11         0.00         0.00
     94.0       10.05            0.00            0.00         10.05         0.00         0.00
     89.3        9.99            0.00            0.00          9.99         0.00         0.00
     84.7        9.93            0.00            0.00          9.93         0.00         0.00
     80.0        9.86            0.00            0.00          9.86         0.00         0.00
     75.4        9.79            0.00            0.00          9.79         0.00         0.00
     70.7        9.72            0.00            0.00          9.72         0.00         0.00
     66.1        9.64            0.00            0.00          9.64         0.00         0.00
     61.4        9.55            0.00            0.00          9.55         0.00         0.00
     56.8        9.46            0.00            0.00          9.46         0.00         0.00
     52.1        9.37            0.00            0.00          9.37         0.00         0.00
     47.5        9.26            0.00            0.00          9.26         0.00         0.00
     42.8        9.15            0.00            0.00          9.15         0.00         0.00
     38.2        9.02            0.00            0.00          9.02         0.00         0.00
     33.5        8.88            0.00            0.00          8.88         0.00         0.00
     28.9        8.73            0.00            0.00          8.73         0.00         0.00
     24.2        8.54            0.00            0.00          8.54         0.00         0.00
     19.6        8.33            0.00            0.00          8.33         0.00         0.00
     14.9        8.06            0.00            0.00          8.06         0.00         0.00
     10.3        7.71            0.00            0.00          7.71         0.00         0.00
      5.6        7.17            0.00            0.00          7.17         0.00         0.00
      1.0        5.83            0.00            0.00          5.83         0.00         0.00


Harvested Random Seeds after Generation of the Random Numbers:

     65026800 K 1
            0 K 2


Hub-Height Simulated Turbulence Statistical Summary:

   Type of Wind        Min (m/s)   Mean (m/s)    Max (m/s)  Sigma (m/s)       TI (%)
   ----------------    ---------   ----------    ---------  -----------       ------
   Longitudinal (u)         8.06         9.99        12.34        0.602        6.030
   Lateral (v)             -1.62        -0.00         1.60        0.520        5.206
   Vertical (w)            -1.24         0.00         1.52        0.358        3.583
   U component              8.06         9.99        12.34        0.602        6.030
   V component             -1.62        -0.00         1.60        0.520        5.206
   W component             -1.24         0.00         1.52        0.358        3.583
   Horizontal (U&V)         8.08        10.00        12.34        0.603        6.024
   Total                    8.08        10.01        12.34        0.602        6.018

                       Min Reynolds     Mean Reynolds    Max Reynolds    Correlation
   Product             Stress (m/s)^2   Stress (m/s)^2   Stress (m/s)^2  Coefficient
   ----------------    --------------   --------------   --------------  -----------
   u'w'                     -1.195             0.003             1.721         0.013
   u'v'                     -1.710             0.019             2.212         0.060
   v'w'                     -1.644             0.009             1.033         0.051


   Friction Velocity (Ustar)  =      0.054 m/s
   Maximum Instantaneous TKE  =      2.835 (m/s)^2
   Maximum Instantaneous CTKE =      1.109 (m/s)^2


Grid Point Variance Summary:

   Y-coord  -79.05  -74.40  -69.75  -65.10  -60.45  -55.80  -51.15  -46.50  -41.85  -37.20  -32.55  -27.90  -23.25  -18.60  -13.95   -9.30   -4.65    0.00    4.65    9.30   13.95   18.60   23.25   27.90   32.55   37.20   41.85   46.50   51.15   55.80   60.45   65.10   69.75   74.40   79.05

   Height   Standard deviation at grid points for the u component:
   168.40    0.572   0.606   0.569   0.552   0.547   0.545   0.574   0.579   0.602   0.618   0.613   0.562   0.545   0.569   0.555   0.546   0.547   0.563   0.567   0.554   0.560   0.586   0.601   0.593   0.557   0.545   0.562   0.554   0.560   0.577   0.555   0.604   0.583   0.590   0.568
   163.75    0.585   0.598   0.578   0.568   0.572   0.546   0.535   0.562   0.597   0.601   0.598   0.551   0.532   0.553   0.541   0.529   0.536   0.557   0.539   0.565   0.583   0.602   0.617   0.578   0.572   0.596   0.578   0.570   0.568   0.576   0.613   0.610   0.628   0.602   0.582
   159.10    0.584   0.585   0.549   0.556   0.558   0.586   0.565   0.563   0.597   0.606   0.604   0.583   0.555   0.532   0.512   0.540   0.550   0.530   0.539   0.563   0.576   0.558   0.584   0.598   0.574   0.552   0.573   0.593   0.593   0.598   0.623   0.612   0.603   0.592   0.612
   154.45    0.580   0.576   0.565   0.576   0.571   0.606   0.581   0.569   0.591   0.589   0.588   0.573   0.570   0.544   0.533   0.556   0.543   0.541   0.562   0.577   0.576   0.586   0.587   0.573   0.593   0.572   0.594   0.612   0.605   0.600   0.618   0.605   0.592   0.577   0.591
   149.80    0.567   0.556   0.587   0.595   0.593   0.607   0.616   0.608   0.615   0.577   0.603   0.574   0.545   0.570   0.574   0.525   0.525   0.530   0.542   0.551   0.561   0.582   0.594   0.592   0.602   0.598   0.631   0.641   0.606   0.609   0.578   0.593   0.610   0.599   0.616
   145.15    0.550   0.572   0.577   0.585   0.615   0.599   0.618   0.618   0.615   0.600   0.599   0.557   0.558   0.548   0.556   0.544   0.513   0.519   0.550   0.546   0.586   0.586   0.625   0.620   0.614   0.616   0.655   0.615   0.638   0.616   0.618   0.585   0.608   0.625   0.650
   140.50    0.548   0.591   0.592   0.584   0.611   0.587   0.601   0.577   0.591   0.579   0.584   0.555   0.548   0.572   0.575   0.575   0.559   0.559   0.585   0.592   0.598   0.624   0.636   0.637   0.614   0.632   0.607   0.648   0.598   0.619   0.634   0.651   0.614   0.631   0.630
   135.85    0.589   0.583   0.580   0.588   0.589   0.585   0.577   0.574   0.602   0.583   0.602   0.582   0.580   0.585   0.579   0.568   0.554   0.563   0.580   0.592   0.580   0.620   0.650   0.638   0.639   0.631   0.631   0.612   0.630   0.623   0.596   0.638   0.643   0.631   0.617
   131.20    0.550   0.564   0.575   0.597   0.585   0.579   0.567   0.613   0.612   0.615   0.602   0.578   0.605   0.587   0.604   0.605   0.569   0.587   0.603   0.589   0.629   0.650   0.640   0.630   0.633   0.612   0.603   0.641   0.634   0.642   0.617   0.615   0.617   0.619   0.629
   126.55    0.555   0.552   0.551   0.572   0.590   0.575   0.568   0.580   0.610   0.587   0.602   0.594   0.612   0.607   0.590   0.594   0.583   0.565   0.598   0.640   0.634   0.668   0.632   0.637   0.631   0.601   0.613   0.642   0.661   0.642   0.640   0.619   0.611   0.640   0.634
   121.90    0.535   0.561   0.569   0.584   0.603   0.584   0.578   0.616   0.622   0.619   0.624   0.653   0.626   0.613   0.616   0.600   0.616   0.578   0.604   0.634   0.649   0.657   0.672   0.652   0.624   0.625   0.656   0.663   0.654   0.665   0.646   0.613   0.627   0.652   0.638
   117.25    0.548   0.557   0.589   0.564   0.564   0.561   0.603   0.635   0.649   0.654   0.658   0.619   0.627   0.605   0.613   0.617   0.616   0.632   0.603   0.629   0.650   0.668   0.650   0.653   0.644   0.633   0.674   0.661   0.657   0.675   0.644   0.644   0.633   0.617   0.659
   112.60    0.553   0.539   0.563   0.567   0.545   0.596   0.590   0.616   0.633   0.655   0.624   0.623   0.631   0.619   0.616   0.624   0.623   0.625   0.618   0.619   0.633   0.659   0.662   0.669   0.686   0.652   0.676   0.691   0.667   0.656   0.662   0.647   0.600   0.643   0.676
   107.95    0.553   0.534   0.536   0.525   0.521   0.577   0.609   0.592   0.596   0.623   0.646   0.627   0.637   0.620   0.633   0.620   0.630   0.608   0.640   0.622   0.614   0.639   0.690   0.671   0.688   0.691   0.653   0.681   0.670   0.662   0.668   0.632   0.597   0.632   0.645
   103.30    0.525   0.522   0.508   0.517   0.510   0.571   0.590   0.601   0.609   0.612   0.618   0.645   0.645   0.637   0.659   0.608   0.615   0.603   0.648   0.645   0.635   0.627   0.642   0.686   0.698   0.670   0.645   0.637   0.647   0.642   0.630   0.614   0.596   0.625   0.639
    98.65    0.547   0.559   0.560   0.537   0.529   0.567   0.602   0.613   0.605   0.605   0.608   0.637   0.637   0.610   0.636   0.637   0.665   0.643   0.630   0.627   0.613   0.618   0.634   0.645   0.674   0.678   0.674   0.636   0.630   0.619   0.657   0.619   0.578   0.590   0.623
    94.00    0.558   0.570   0.584   0.572   0.573   0.587   0.588   0.597   0.591   0.583   0.597   0.610   0.603   0.623   0.603   0.635   0.642   0.629   0.621   0.624   0.629   0.596   0.601   0.642   0.659   0.659   0.703   0.656   0.633   0.619   0.626   0.648   0.630   0.626   0.622
    89.35    0.570   0.600   0.576   0.588   0.583   0.590   0.594   0.603   0.555   0.571   0.594   0.601   0.582   0.612   0.616   0.655   0.646   0.602   0.610   0.638   0.651   0.628   0.629   0.628   0.637   0.636   0.686   0.641   0.661   0.625   0.602   0.644   0.670   0.631   0.672
    84.70    0.551   0.601   0.601   0.581   0.576   0.579   0.602   0.588   0.572   0.602   0.625   0.607   0.608   0.598   0.611   0.648   0.633   0.638   0.657   0.623   0.620   0.619   0.623   0.628   0.605   0.633   0.646   0.678   0.667   0.633   0.635   0.653   0.646   0.635   0.637
    80.05    0.537   0.583   0.592   0.596   0.570   0.561   0.576   0.611   0.614   0.594   0.622   0.623   0.595   0.583   0.605   0.647   0.655   0.646   0.633   0.645   0.610   0.608   0.627   0.607   0.627   0.631   0.659   0.666   0.664   0.643   0.665   0.617   0.604   0.611   0.657
    75.40    0.572   0.564   0.568   0.555   0.535   0.560   0.535   0.549   0.599   0.611   0.581   0.593   0.608   0.611   0.612   0.659   0.671   0.682   0.654   0.661   0.630   0.596   0.596   0.619   0.593   0.626   0.617   0.654   0.648   0.646   0.669   0.613   0.649   0.648   0.676
    70.75    0.543   0.551   0.554   0.568   0.563   0.549   0.539   0.522   0.577   0.581   0.577   0.597   0.583   0.652   0.656   0.664   0.649   0.650   0.629   0.640   0.636   0.620   0.601   0.612   0.609   0.627   0.633   0.645   0.667   0.662   0.676   0.654   0.660   0.662   0.690
    66.10    0.545   0.533   0.525   0.539   0.548   0.541   0.544   0.534   0.532   0.558   0.556   0.567   0.572   0.607   0.628   0.639   0.625   0.637   0.647   0.657   0.636   0.620   0.632   0.627   0.639   0.656   0.637   0.631   0.637   0.652   0.667   0.640   0.660   0.663   0.658
    61.45    0.538   0.556   0.536   0.535   0.535   0.529   0.520   0.525   0.532   0.582   0.559   0.567   0.603   0.614   0.619   0.614   0.613   0.620   0.626   0.632   0.628   0.603   0.594   0.644   0.649   0.649   0.654   0.658   0.639   0.639   0.652   0.637   0.643   0.637   0.670
    56.80    0.557   0.524   0.501   0.527   0.526   0.497   0.528   0.528   0.558   0.538   0.574   0.579   0.574   0.602   0.596   0.618   0.615   0.600   0.610   0.610   0.594   0.600   0.620   0.618   0.626   0.655   0.630   0.634   0.636   0.639   0.640   0.614   0.633   0.594   0.615
    52.15    0.522   0.509   0.528   0.487   0.509   0.502   0.529   0.528   0.545   0.566   0.568   0.559   0.553   0.576   0.629   0.611   0.613   0.602   0.602   0.606   0.568   0.598   0.621   0.601   0.617   0.634   0.614   0.608   0.610   0.634   0.642   0.607   0.617   0.606   0.590
    47.50    0.521   0.514   0.526   0.510   0.534   0.522   0.512   0.542   0.574   0.591   0.570   0.569   0.556   0.589   0.609   0.620   0.610   0.601   0.622   0.609   0.601   0.616   0.612   0.614   0.595   0.607   0.619   0.591   0.600   0.623   0.595   0.622   0.616   0.595   0.562
    42.85    0.546   0.515   0.511   0.522   0.518   0.546   0.563   0.569   0.594   0.581   0.594   0.558   0.572   0.589   0.583   0.583   0.577   0.570   0.599   0.610   0.607   0.622   0.598   0.620   0.610   0.572   0.575   0.565   0.580   0.588   0.588   0.621   0.635   0.609   0.576
    38.20    0.565   0.557   0.513   0.528   0.545   0.578   0.582   0.598   0.580   0.578   0.600   0.628   0.594   0.575   0.598   0.588   0.571   0.585   0.605   0.603   0.616   0.623   0.618   0.588   0.603   0.572   0.584   0.578   0.581   0.580   0.580   0.620   0.612   0.592   0.609
    33.55    0.540   0.567   0.538   0.529   0.550   0.592   0.590   0.605   0.601   0.595   0.601   0.617   0.621   0.600   0.622   0.622   0.584   0.607   0.584   0.601   0.614   0.610   0.595   0.610   0.571   0.545   0.529   0.547   0.562   0.567   0.590   0.602   0.601   0.640   0.615
    28.90    0.567   0.550   0.546   0.556   0.569   0.589   0.618   0.587   0.595   0.607   0.598   0.593   0.605   0.611   0.581   0.616   0.610   0.618   0.577   0.558   0.552   0.593   0.572   0.588   0.543   0.552   0.554   0.538   0.546   0.535   0.576   0.590   0.593   0.602   0.637
    24.25    0.586   0.557   0.554   0.565   0.581   0.590   0.583   0.577   0.610   0.601   0.596   0.618   0.611   0.606   0.600   0.598   0.596   0.601   0.588   0.567   0.588   0.593   0.590   0.561   0.542   0.545   0.541   0.539   0.555   0.565   0.580   0.564   0.561   0.601   0.625
    19.60    0.601   0.582   0.570   0.561   0.590   0.586   0.584   0.561   0.589   0.579   0.587   0.586   0.606   0.591   0.612   0.591   0.560   0.571   0.560   0.584   0.564   0.585   0.581   0.572   0.562   0.559   0.554   0.554   0.562   0.573   0.585   0.565   0.571   0.593   0.604
    14.95    0.567   0.553   0.558   0.541   0.559   0.581   0.611   0.602   0.615   0.570   0.585   0.573   0.605   0.577   0.605   0.574   0.553   0.577   0.567   0.568   0.566   0.564   0.555   0.565   0.572   0.559   0.559   0.585   0.567   0.580   0.594   0.566   0.571   0.589   0.569
    10.30    0.593   0.562   0.557   0.578   0.580   0.603   0.589   0.575   0.596   0.576   0.569   0.589   0.608   0.598   0.587   0.593   0.535   0.577   0.594   0.593   0.612   0.583   0.541   0.569   0.589   0.606   0.586   0.594   0.569   0.582   0.602   0.575   0.574   0.568   0.566
     5.65    0.596   0.574   0.578   0.566   0.561   0.565   0.589   0.576   0.594   0.606   0.592   0.594   0.549   0.576   0.563   0.565   0.555   0.551   0.602   0.593   0.569   0.597   0.579   0.583   0.605   0.622   0.594   0.581   0.557   0.573   0.609   0.591   0.592   0.565   0.562
     1.00    0.577   0.573   0.577   0.570   0.547   0.556   0.575   0.612   0.597   0.591   0.607   0.584   0.552   0.563   0.569   0.559   0.578   0.577   0.588   0.590   0.605   0.610   0.589   0.580   0.610   0.618   0.580   0.599   0.582   0.603   0.579   0.606   0.621   0.588   0.569

   Height   Standard deviation at grid points for the v component:
   168.40    0.529   0.586   0.581   0.555   0.528   0.537   0.572   0.551   0.568   0.558   0.545   0.563   0.572   0.552   0.571   0.541   0.531   0.525   0.499   0.508   0.529   0.520   0.496   0.524   0.525   0.540   0.514   0.546   0.557   0.575   0.532   0.533   0.552   0.598   0.608
   163.75    0.536   0.572   0.543   0.543   0.557   0.545   0.532   0.555   0.580   0.562   0.519   0.539   0.517   0.565   0.557   0.519   0.498   0.502   0.510   0.513   0.537   0.543   0.507   0.520   0.509   0.544   0.549   0.548   0.599   0.580   0.539   0.523   0.547   0.573   0.597
   159.10    0.535   0.545   0.522   0.548   0.585   0.567   0.551   0.573   0.592   0.549   0.529   0.547   0.546   0.557   0.564   0.522   0.512   0.493   0.482   0.511   0.514   0.509   0.484   0.483   0.511   0.526   0.552   0.556   0.589   0.585   0.586   0.560   0.556   0.572   0.590
   154.45    0.518   0.542   0.532   0.531   0.554   0.550   0.555   0.559   0.567   0.536   0.521   0.531   0.531   0.544   0.557   0.516   0.495   0.488   0.517   0.520   0.529   0.527   0.504   0.503   0.486   0.521   0.558   0.568   0.575   0.589   0.582   0.564   0.556   0.568   0.566
   149.80    0.510   0.528   0.534   0.550   0.547   0.539   0.551   0.561   0.535   0.552   0.574   0.535   0.525   0.514   0.567   0.553   0.529   0.529   0.514   0.514   0.517   0.495   0.493   0.482   0.503   0.533   0.525   0.534   0.568   0.569   0.571   0.598   0.597   0.589   0.598
   145.15    0.532   0.527   0.533   0.534   0.544   0.563   0.540   0.556   0.533   0.558   0.578   0.545   0.524   0.536   0.536   0.563   0.568   0.559   0.536   0.519   0.504   0.498   0.506   0.487   0.490   0.512   0.508   0.522   0.532   0.549   0.556   0.566   0.592   0.595   0.579
   140.50    0.548   0.527   0.569   0.557   0.547   0.548   0.558   0.529   0.541   0.555   0.527   0.549   0.540   0.546   0.562   0.576   0.573   0.569   0.556   0.515   0.511   0.496   0.504   0.506   0.517   0.535   0.494   0.526   0.552   0.532   0.548   0.553   0.594   0.601   0.594
   135.85    0.549   0.554   0.555   0.557   0.545   0.555   0.557   0.562   0.533   0.533   0.521   0.529   0.527   0.555   0.557   0.572   0.559   0.555   0.573   0.521   0.513   0.480   0.500   0.483   0.506   0.498   0.511   0.538   0.543   0.527   0.561   0.567   0.577   0.583   0.565
   131.20    0.541   0.543   0.540   0.552   0.520   0.532   0.553   0.520   0.534   0.531   0.506   0.515   0.510   0.529   0.570   0.596   0.588   0.623   0.563   0.542   0.551   0.519   0.488   0.502   0.502   0.511   0.509   0.540   0.551   0.566   0.559   0.549   0.554   0.573   0.587
   126.55    0.535   0.535   0.553   0.527   0.516   0.495   0.514   0.505   0.495   0.503   0.504   0.527   0.505   0.531   0.554   0.582   0.591   0.597   0.581   0.564   0.572   0.562   0.512   0.499   0.488   0.533   0.544   0.531   0.548   0.581   0.558   0.563   0.540   0.558   0.571
   121.90    0.520   0.511   0.515   0.515   0.483   0.449   0.475   0.516   0.503   0.509   0.513   0.495   0.512   0.525   0.537   0.567   0.570   0.564   0.576   0.581   0.584   0.558   0.541   0.498   0.492   0.494   0.522   0.522   0.536   0.531   0.557   0.562   0.568   0.575   0.593
   117.25    0.503   0.497   0.497   0.480   0.456   0.467   0.452   0.481   0.489   0.495   0.493   0.492   0.497   0.506   0.502   0.533   0.561   0.541   0.568   0.603   0.609   0.562   0.550   0.543   0.513   0.515   0.533   0.527   0.530   0.545   0.565   0.551   0.539   0.601   0.612
   112.60    0.486   0.477   0.443   0.452   0.454   0.454   0.469   0.482   0.485   0.513   0.493   0.489   0.512   0.495   0.503   0.500   0.528   0.554   0.592   0.602   0.603   0.572   0.546   0.540   0.527   0.501   0.509   0.536   0.544   0.541   0.572   0.553   0.529   0.571   0.610
   107.95    0.504   0.482   0.470   0.462   0.435   0.457   0.462   0.486   0.473   0.492   0.516   0.510   0.506   0.503   0.493   0.520   0.531   0.562   0.561   0.561   0.591   0.581   0.582   0.549   0.527   0.506   0.492   0.518   0.559   0.554   0.582   0.550   0.561   0.582   0.588
   103.30    0.517   0.499   0.478   0.462   0.469   0.486   0.482   0.506   0.493   0.463   0.498   0.513   0.486   0.508   0.507   0.535   0.538   0.538   0.577   0.593   0.608   0.567   0.534   0.536   0.509   0.512   0.499   0.511   0.550   0.568   0.561   0.568   0.567   0.600   0.588
    98.65    0.525   0.510   0.497   0.471   0.482   0.516   0.532   0.522   0.498   0.479   0.498   0.527   0.521   0.536   0.507   0.514   0.521   0.559   0.580   0.591   0.594   0.553   0.528   0.506   0.508   0.520   0.504   0.495   0.538   0.550   0.588   0.601   0.624   0.586   0.591
    94.00    0.548   0.516   0.518   0.490   0.480   0.525   0.539   0.526   0.482   0.485   0.498   0.534   0.515   0.531   0.504   0.529   0.540   0.533   0.576   0.593   0.578   0.541   0.528   0.522   0.522   0.521   0.513   0.520   0.555   0.568   0.577   0.562   0.592   0.586   0.567
    89.35    0.547   0.534   0.502   0.518   0.518   0.534   0.528   0.515   0.526   0.529   0.506   0.513   0.520   0.500   0.545   0.522   0.530   0.520   0.555   0.560   0.566   0.551   0.525   0.527   0.554   0.523   0.511   0.524   0.552   0.531   0.533   0.560   0.592   0.563   0.561
    84.70    0.540   0.521   0.518   0.504   0.490   0.526   0.545   0.564   0.566   0.543   0.519   0.530   0.519   0.514   0.511   0.535   0.542   0.554   0.557   0.590   0.543   0.555   0.511   0.550   0.547   0.531   0.514   0.534   0.553   0.527   0.555   0.583   0.583   0.559   0.565
    80.05    0.536   0.515   0.501   0.514   0.517   0.515   0.553   0.524   0.530   0.527   0.533   0.506   0.493   0.503   0.502   0.541   0.556   0.561   0.573   0.575   0.560   0.535   0.544   0.545   0.543   0.559   0.573   0.587   0.573   0.567   0.565   0.593   0.567   0.580   0.584
    75.40    0.524   0.485   0.496   0.503   0.542   0.535   0.528   0.533   0.531   0.517   0.524   0.517   0.510   0.484   0.512   0.552   0.557   0.572   0.556   0.571   0.570   0.542   0.562   0.573   0.583   0.576   0.599   0.606   0.568   0.599   0.608   0.576   0.556   0.568   0.560
    70.75    0.526   0.528   0.507   0.494   0.525   0.549   0.539   0.517   0.517   0.517   0.493   0.494   0.516   0.512   0.529   0.511   0.526   0.548   0.558   0.567   0.598   0.586   0.581   0.595   0.596   0.603   0.602   0.608   0.606   0.576   0.560   0.559   0.561   0.519   0.533
    66.10    0.498   0.503   0.520   0.499   0.531   0.554   0.530   0.536   0.534   0.532   0.498   0.496   0.491   0.515   0.509   0.548   0.546   0.551   0.572   0.594   0.618   0.601   0.611   0.602   0.599   0.565   0.580   0.588   0.588   0.534   0.571   0.549   0.579   0.512   0.548
    61.45    0.499   0.506   0.485   0.520   0.514   0.540   0.540   0.557   0.554   0.559   0.520   0.525   0.532   0.547   0.539   0.556   0.552   0.556   0.555   0.562   0.581   0.577   0.573   0.592   0.579   0.516   0.516   0.549   0.546   0.564   0.561   0.546   0.525   0.541   0.554
    56.80    0.529   0.500   0.497   0.507   0.535   0.554   0.546   0.558   0.577   0.591   0.583   0.552   0.538   0.580   0.570   0.546   0.559   0.565   0.540   0.549   0.573   0.557   0.564   0.552   0.542   0.509   0.516   0.567   0.564   0.546   0.552   0.579   0.544   0.578   0.578
    52.15    0.551   0.538   0.561   0.528   0.531   0.538   0.521   0.576   0.582   0.592   0.562   0.559   0.572   0.572   0.602   0.595   0.604   0.553   0.571   0.548   0.535   0.549   0.588   0.555   0.535   0.556   0.541   0.571   0.569   0.595   0.573   0.574   0.562   0.572   0.550
    47.50    0.573   0.555   0.563   0.530   0.551   0.547   0.546   0.586   0.605   0.589   0.579   0.574   0.536   0.556   0.561   0.610   0.589   0.551   0.531   0.546   0.560   0.550   0.559   0.579   0.606   0.574   0.560   0.590   0.602   0.564   0.549   0.537   0.571   0.579   0.548
    42.85    0.582   0.575   0.584   0.561   0.556   0.550   0.543   0.565   0.577   0.561   0.562   0.571   0.543   0.569   0.578   0.554   0.552   0.531   0.524   0.546   0.571   0.566   0.582   0.577   0.566   0.599   0.598   0.579   0.573   0.568   0.543   0.542   0.587   0.601   0.604
    38.20    0.573   0.583   0.569   0.560   0.537   0.557   0.552   0.557   0.574   0.562   0.565   0.549   0.566   0.559   0.563   0.540   0.541   0.554   0.559   0.555   0.537   0.544   0.586   0.564   0.562   0.599   0.600   0.610   0.572   0.575   0.514   0.549   0.588   0.619   0.625
    33.55    0.604   0.572   0.548   0.519   0.514   0.535   0.551   0.538   0.530   0.529   0.521   0.527   0.527   0.562   0.546   0.508   0.491   0.522   0.529   0.540   0.529   0.545   0.563   0.534   0.573   0.598   0.624   0.589   0.609   0.582   0.526   0.554   0.588   0.534   0.556
    28.90    0.552   0.530   0.525   0.509   0.518   0.545   0.542   0.534   0.520   0.525   0.525   0.498   0.513   0.525   0.536   0.514   0.542   0.552   0.565   0.568   0.532   0.541   0.552   0.573   0.595   0.600   0.602   0.624   0.563   0.573   0.549   0.535   0.562   0.553   0.557
    24.25    0.515   0.550   0.567   0.528   0.544   0.518   0.525   0.549   0.522   0.544   0.527   0.514   0.479   0.499   0.513   0.536   0.539   0.568   0.590   0.581   0.571   0.528   0.546   0.589   0.588   0.574   0.591   0.585   0.582   0.582   0.544   0.522   0.531   0.553   0.566
    19.60    0.537   0.537   0.532   0.541   0.540   0.524   0.506   0.524   0.550   0.525   0.502   0.489   0.487   0.498   0.548   0.568   0.552   0.570   0.597   0.582   0.572   0.538   0.541   0.573   0.604   0.599   0.591   0.597   0.576   0.575   0.543   0.548   0.529   0.521   0.580
    14.95    0.540   0.505   0.547   0.551   0.492   0.505   0.535   0.519   0.545   0.516   0.513   0.507   0.518   0.505   0.521   0.560   0.560   0.563   0.590   0.582   0.545   0.543   0.538   0.565   0.584   0.594   0.604   0.580   0.568   0.533   0.521   0.572   0.558   0.572   0.598
    10.30    0.541   0.534   0.532   0.502   0.521   0.539   0.574   0.564   0.552   0.504   0.510   0.495   0.510   0.505   0.516   0.564   0.580   0.591   0.559   0.549   0.556   0.563   0.530   0.550   0.553   0.571   0.576   0.562   0.558   0.549   0.549   0.584   0.605   0.610   0.619
     5.65    0.585   0.540   0.535   0.513   0.521   0.534   0.549   0.537   0.535   0.506   0.506   0.512   0.504   0.494   0.533   0.561   0.566   0.613   0.572   0.573   0.559   0.568   0.561   0.569   0.523   0.576   0.536   0.572   0.571   0.548   0.540   0.589   0.592   0.606   0.614
     1.00    0.572   0.579   0.556   0.559   0.559   0.571   0.581   0.517   0.509   0.506   0.504   0.502   0.507   0.503   0.514   0.552   0.576   0.603   0.580   0.556   0.568   0.571   0.590   0.556   0.538   0.557   0.549   0.568   0.551   0.549   0.535   0.576   0.582   0.604   0.613

   Height   Standard deviation at grid points for the w component:
   168.40    0.368   0.376   0.383   0.375   0.364   0.357   0.362   0.356   0.350   0.372   0.376   0.357   0.360   0.368   0.366   0.366   0.371   0.385   0.365   0.356   0.370   0.357   0.360   0.369   0.395   0.383   0.382   0.367   0.370   0.366   0.376   0.381   0.375   0.384   0.365
   163.75    0.381   0.377   0.374   0.374   0.368   0.364   0.369   0.358   0.355   0.368   0.369   0.373   0.360   0.357   0.357   0.369   0.370   0.367   0.362   0.368   0.377   0.364   0.366   0.372   0.374   0.381   0.377   0.359   0.379   0.370   0.363   0.359   0.359   0.360   0.357
   159.10    0.374   0.366   0.378   0.380   0.375   0.363   0.371   0.365   0.360   0.362   0.369   0.356   0.362   0.360   0.358   0.354   0.360   0.354   0.366   0.359   0.357   0.353   0.357   0.360   0.375   0.371   0.359   0.358   0.375   0.365   0.362   0.367   0.360   0.362   0.346
   154.45    0.373   0.378   0.379   0.396   0.376   0.376   0.381   0.368   0.357   0.349   0.363   0.365   0.368   0.367   0.351   0.353   0.362   0.346   0.356   0.356   0.355   0.359   0.352   0.354   0.359   0.363   0.367   0.345   0.346   0.351   0.351   0.359   0.343   0.344   0.352
   149.80    0.378   0.382   0.383   0.390   0.390   0.384   0.383   0.364   0.352   0.357   0.361   0.365   0.361   0.357   0.358   0.354   0.356   0.352   0.364   0.356   0.362   0.364   0.362   0.358   0.352   0.359   0.346   0.352   0.352   0.362   0.346   0.354   0.341   0.343   0.343
   145.15    0.372   0.371   0.379   0.379   0.383   0.384   0.387   0.383   0.372   0.383   0.359   0.364   0.356   0.348   0.352   0.355   0.363   0.347   0.354   0.366   0.366   0.370   0.360   0.356   0.355   0.350   0.349   0.351   0.346   0.347   0.353   0.353   0.347   0.343   0.342
   140.50    0.373   0.372   0.383   0.368   0.384   0.386   0.395   0.387   0.396   0.386   0.382   0.370   0.362   0.353   0.347   0.361   0.357   0.351   0.348   0.349   0.352   0.353   0.365   0.357   0.351   0.350   0.352   0.342   0.347   0.356   0.362   0.362   0.362   0.358   0.340
   135.85    0.377   0.372   0.381   0.382   0.380   0.395   0.393   0.383   0.383   0.379   0.377   0.368   0.370   0.380   0.341   0.349   0.356   0.349   0.351   0.348   0.355   0.346   0.358   0.350   0.357   0.370   0.361   0.364   0.357   0.367   0.376   0.365   0.362   0.362   0.345
   131.20    0.379   0.380   0.383   0.374   0.378   0.384   0.382   0.385   0.372   0.384   0.391   0.379   0.382   0.369   0.357   0.360   0.349   0.350   0.348   0.355   0.358   0.350   0.363   0.353   0.344   0.348   0.369   0.357   0.375   0.371   0.368   0.372   0.363   0.354   0.347
   126.55    0.400   0.385   0.388   0.391   0.388   0.392   0.390   0.382   0.374   0.392   0.390   0.386   0.384   0.369   0.357   0.362   0.347   0.357   0.351   0.351   0.354   0.353   0.362   0.358   0.350   0.364   0.368   0.375   0.375   0.369   0.362   0.360   0.350   0.364   0.355
   121.90    0.395   0.388   0.385   0.394   0.401   0.403   0.401   0.393   0.386   0.379   0.391   0.385   0.373   0.380   0.353   0.361   0.362   0.371   0.365   0.360   0.361   0.368   0.363   0.359   0.359   0.375   0.374   0.376   0.377   0.373   0.363   0.362   0.354   0.358   0.351
   117.25    0.394   0.387   0.392   0.384   0.384   0.392   0.397   0.393   0.389   0.395   0.392   0.390   0.393   0.386   0.355   0.348   0.354   0.363   0.365   0.374   0.370   0.360   0.359   0.362   0.373   0.378   0.363   0.372   0.366   0.375   0.360   0.362   0.358   0.356   0.342
   112.60    0.396   0.388   0.383   0.393   0.390   0.393   0.385   0.388   0.392   0.384   0.397   0.400   0.399   0.374   0.352   0.341   0.355   0.373   0.367   0.374   0.370   0.356   0.371   0.365   0.370   0.371   0.367   0.368   0.357   0.359   0.363   0.364   0.346   0.351   0.357
   107.95    0.395   0.400   0.400   0.396   0.397   0.388   0.379   0.387   0.389   0.394   0.389   0.387   0.373   0.357   0.356   0.352   0.361   0.355   0.366   0.366   0.367   0.365   0.367   0.367   0.366   0.362   0.360   0.359   0.351   0.343   0.351   0.355   0.357   0.344   0.343
   103.30    0.380   0.383   0.389   0.391   0.386   0.374   0.374   0.377   0.383   0.381   0.389   0.392   0.363   0.355   0.356   0.361   0.356   0.363   0.363   0.366   0.353   0.363   0.363   0.363   0.359   0.358   0.369   0.374   0.374   0.351   0.357   0.343   0.343   0.348   0.354
    98.65    0.378   0.380   0.377   0.376   0.370   0.372   0.375   0.375   0.376   0.363   0.368   0.365   0.378   0.368   0.361   0.376   0.370   0.356   0.362   0.365   0.360   0.367   0.367   0.369   0.376   0.364   0.370   0.383   0.388   0.363   0.359   0.345   0.339   0.349   0.354
    94.00    0.384   0.369   0.372   0.362   0.374   0.366   0.359   0.362   0.374   0.366   0.359   0.363   0.370   0.366   0.365   0.369   0.372   0.366   0.373   0.382   0.381   0.380   0.363   0.356   0.372   0.378   0.368   0.376   0.379   0.375   0.367   0.352   0.329   0.349   0.363
    89.35    0.375   0.369   0.367   0.365   0.365   0.375   0.362   0.365   0.361   0.361   0.354   0.361   0.365   0.365   0.373   0.382   0.364   0.358   0.359   0.371   0.381   0.367   0.360   0.357   0.362   0.364   0.373   0.367   0.376   0.373   0.373   0.374   0.352   0.350   0.366
    84.70    0.370   0.358   0.355   0.350   0.360   0.356   0.359   0.343   0.351   0.361   0.355   0.358   0.354   0.365   0.368   0.376   0.367   0.348   0.353   0.349   0.374   0.370   0.374   0.367   0.365   0.364   0.371   0.376   0.386   0.374   0.381   0.387   0.365   0.367   0.359
    80.05    0.371   0.375   0.361   0.356   0.361   0.360   0.356   0.359   0.357   0.355   0.353   0.343   0.357   0.359   0.360   0.365   0.366   0.365   0.360   0.367   0.366   0.367   0.360   0.367   0.363   0.357   0.373   0.374   0.380   0.383   0.368   0.376   0.375   0.369   0.357
    75.40    0.370   0.365   0.371   0.369   0.361   0.357   0.352   0.342   0.335   0.349   0.350   0.351   0.337   0.346   0.357   0.353   0.346   0.350   0.353   0.351   0.351   0.355   0.371   0.378   0.356   0.367   0.371   0.394   0.384   0.369   0.371   0.377   0.380   0.365   0.373
    70.75    0.361   0.351   0.354   0.357   0.355   0.354   0.352   0.346   0.343   0.340   0.337   0.333   0.334   0.342   0.357   0.361   0.360   0.348   0.344   0.351   0.353   0.356   0.378   0.375   0.362   0.369   0.381   0.384   0.388   0.380   0.369   0.371   0.367   0.377   0.366
    66.10    0.378   0.352   0.354   0.370   0.360   0.345   0.352   0.340   0.339   0.333   0.329   0.343   0.346   0.342   0.350   0.357   0.355   0.360   0.364   0.359   0.355   0.364   0.371   0.373   0.369   0.382   0.396   0.389   0.379   0.370   0.358   0.379   0.381   0.375   0.384
    61.45    0.371   0.373   0.371   0.366   0.347   0.340   0.353   0.347   0.345   0.340   0.339   0.348   0.343   0.339   0.343   0.349   0.357   0.364   0.357   0.365   0.346   0.360   0.360   0.369   0.372   0.374   0.382   0.391   0.393   0.371   0.364   0.385   0.381   0.397   0.393
    56.80    0.364   0.372   0.377   0.363   0.358   0.351   0.355   0.350   0.343   0.329   0.335   0.334   0.346   0.347   0.357   0.368   0.354   0.359   0.377   0.374   0.354   0.364   0.353   0.345   0.360   0.375   0.379   0.386   0.390   0.386   0.382   0.379   0.396   0.396   0.391
    52.15    0.384   0.396   0.394   0.384   0.371   0.378   0.368   0.367   0.362   0.343   0.333   0.325   0.339   0.342   0.364   0.380   0.366   0.361   0.369   0.369   0.358   0.361   0.357   0.346   0.358   0.369   0.391   0.396   0.385   0.377   0.396   0.383   0.380   0.400   0.394
    47.50    0.380   0.390   0.396   0.404   0.382   0.372   0.360   0.359   0.356   0.369   0.345   0.331   0.334   0.359   0.365   0.381   0.365   0.360   0.360   0.353   0.358   0.371   0.357   0.378   0.367   0.378   0.380   0.379   0.385   0.386   0.385   0.386   0.401   0.405   0.397
    42.85    0.375   0.379   0.390   0.385   0.388   0.363   0.370   0.367   0.361   0.361   0.352   0.338   0.354   0.360   0.366   0.363   0.351   0.357   0.360   0.372   0.361   0.376   0.376   0.374   0.377   0.380   0.387   0.360   0.381   0.388   0.367   0.386   0.393   0.381   0.390
    38.20    0.393   0.386   0.403   0.376   0.377   0.390   0.363   0.354   0.352   0.354   0.357   0.342   0.363   0.365   0.353   0.362   0.352   0.364   0.358   0.375   0.368   0.382   0.394   0.377   0.376   0.386   0.369   0.352   0.373   0.392   0.391   0.376   0.385   0.390   0.390
    33.55    0.406   0.388   0.384   0.376   0.360   0.381   0.371   0.351   0.337   0.342   0.342   0.354   0.361   0.360   0.367   0.362   0.355   0.352   0.361   0.365   0.364   0.376   0.385   0.375   0.378   0.378   0.369   0.356   0.355   0.357   0.360   0.383   0.393   0.383   0.383
    28.90    0.397   0.378   0.384   0.367   0.358   0.372   0.368   0.344   0.330   0.335   0.350   0.355   0.371   0.353   0.355   0.362   0.355   0.363   0.368   0.384   0.372   0.377   0.362   0.366   0.374   0.362   0.357   0.347   0.359   0.373   0.374   0.385   0.380   0.386   0.397
    24.25    0.378   0.380   0.381   0.364   0.362   0.364   0.369   0.348   0.335   0.340   0.349   0.369   0.361   0.361   0.353   0.333   0.361   0.370   0.375   0.374   0.382   0.361   0.351   0.351   0.368   0.370   0.372   0.364   0.355   0.384   0.394   0.383   0.385   0.389   0.389
    19.60    0.375   0.369   0.369   0.362   0.353   0.362   0.358   0.350   0.352   0.346   0.339   0.364   0.360   0.348   0.346   0.341   0.350   0.356   0.369   0.368   0.351   0.361   0.359   0.356   0.370   0.376   0.357   0.359   0.362   0.360   0.392   0.383   0.389   0.393   0.394
    14.95    0.378   0.354   0.352   0.355   0.352   0.346   0.355   0.361   0.344   0.348   0.364   0.363   0.358   0.353   0.342   0.344   0.354   0.374   0.372   0.358   0.355   0.359   0.358   0.372   0.364   0.354   0.361   0.371   0.362   0.372   0.388   0.392   0.397   0.392   0.397
    10.30    0.371   0.360   0.352   0.351   0.351   0.337   0.350   0.350   0.348   0.352   0.361   0.363   0.368   0.360   0.355   0.346   0.343   0.365   0.376   0.355   0.364   0.365   0.376   0.380   0.374   0.373   0.375   0.376   0.377   0.376   0.388   0.400   0.393   0.385   0.392
     5.65    0.360   0.351   0.345   0.332   0.332   0.337   0.343   0.374   0.374   0.359   0.348   0.370   0.374   0.376   0.368   0.361   0.349   0.360   0.368   0.367   0.372   0.379   0.368   0.381   0.387   0.377   0.380   0.376   0.375   0.380   0.381   0.380   0.383   0.389   0.381
     1.00    0.363   0.343   0.339   0.341   0.342   0.342   0.339   0.363   0.373   0.361   0.367   0.371   0.371   0.376   0.378   0.367   0.351   0.357   0.365   0.369   0.371   0.370   0.376   0.372   0.374   0.394   0.394   0.393   0.378   0.360   0.371   0.384   0.382   0.387   0.377

   Mean standard deviation across all grid points:
      u component:    0.597 m/s
      v component:    0.544 m/s
      w component:    0.366 m/s


U-component (X) statistics from the interpolated hub point:

   Mean =   9.9913 m/s
   TI   =   6.0302 %


Processing complete.  5539.4 CPU seconds used.
