
This summary file was generated by TurbSim (from OpenFAST-v3.5.3) on 20-Apr-2025 at 02:39:42.


Runtime Options:

1333634118  Random seed #1
    RANLUX  Type of random number generator
         F  Output binary HH turbulence parameters?
         F  Output formatted turbulence parameters?
         F  Output AeroDyn HH files?
         T  Output AeroDyn FF files?
         F  Output BLADED FF files?
         F  Output tower data?
         F  Output HAWC FF files?
         F  Output formatted FF files?
         T  Output coherent turbulence time step file?
 0 -  NONE  IEC turbulence models scaled to exact specified standard deviation


Turbine/Model Specifications:

        37  Vertical grid-point matrix dimension
        35  Horizontal grid-point matrix dimension
     0.250  Time step [seconds]
   900.000  Analysis time [seconds]
   900.000  Usable output time [seconds]
    89.350  Hub height [m]
   167.400  Grid height [m]
   158.100  Grid width [m]
     0.000  Vertical flow angle [degrees]
     0.000  Horizontal flow angle [degrees]


Meteorological Boundary Conditions:

    TIMESR  User-input time series spectral model
       N/A  IEC standard
       N/A  IEC turbulence characteristic
       N/A  IEC turbulence type
       N/A  IEC Extreme Turbulence Model (ETM) "c" parameter [m/s]
       PL   Wind profile type
    90.000  Reference height [m]
    10.000  Reference wind speed [m/s]
       N/A  Jet height [m]
     0.120  Power law exponent
     0.030  Surface roughness length [m]


Non-IEC Meteorological Boundary Conditions:

    45.000  Site latitude [degrees]
     0.050  Gradient Richardson number
     0.480  Friction or shear velocity [m/s]
       N/A  Mixing layer depth [m]
       N/A  Mean hub u'w' Reynolds stress
       N/A  Mean hub u'v' Reynolds stress
       N/A  Mean hub v'w' Reynolds stress


Spatial Coherence Models:

       IEC  u-component coherence model
       IEC  v-component coherence model
       IEC  w-component coherence model
(   12.000, 0.353E-03)  u-component coherence parameters
(   12.000, 0.353E-03)  v-component coherence parameters
(   12.000, 0.353E-03)  w-component coherence parameters
       N/A  Coherence exponent


Coherent Turbulence Scaling Parameters:

.\EventData
            Name of the path containing the coherent turbulence data files
       dns  Type of coherent turbulence data files
     1.000  Disturbance scale (ratio of wave height to rotor diameter)
     0.500  Fractional location of tower centerline from right
     0.500  Fractional location of hub height from the bottom of the dataset
    30.000  Minimum start time for coherent structures [seconds]


Profiles from User-Defined Time-Series Input:

  Height   Wind Speed   Horizontal Angle   Vertical Angle
   (m)        (m/s)          (deg)              (deg)    
  ------   ----------   ----------------   --------------
   94.00      10.00          -0.63                0.00


You have requested that the following file(s) be generated:

   /kfs3/scratch/agupta/Projects/RL_Incubator/FinalRuns_Veer/Seed4/./FFSim_Seed4/Cond00_v10.0_PL0.12_TI3.0/Case0_wdirp00/Seed_4/TurbSim/HighT2.bts (AeroDyn/TurbSim full-field wind file)


Turbulence Simulation Scaling Parameter Summary:

   Turbulence model used                            =  User-input time series
   Gradient Richardson number                       =    0.050
   Monin-Obukhov (M-O) z/L parameter                =    0.067
   Monin-Obukhov (M-O) length scale                 = 1340.250 m
   Mean wind speed at hub height                    =    9.991 m/s

   Wind profile type                                =  Power law
   Power law exponent                               =    0.120
   Mean shear across rotor disk                     =    0.019 (m/s)/m
   Assumed rotor diameter                           =  158.100 m
   Surface roughness length                         =    0.030 m

   Nyquist frequency of turbulent wind field        =    2.000 Hz

   Number of time steps in the FFT                  =     3600
   Number of time steps output                      =     3600
   Number of points simulated                       =     1296


Mean Flow Angles:

   Vertical   =   0.0 degrees
   Horizontal =   0.0 degrees

Mean Wind Speed Profile:

   Height    Wind Speed   Horizontal Angle  Vertical Angle  U-comp (X)   V-comp (Y)   W-comp (Z)
     (m)        (m/s)         (degrees)       (degrees)       (m/s)        (m/s)        (m/s)   
   ------    ----------   ----------------  --------------  ----------   ----------   ----------
    168.4       10.78            0.00            0.00         10.78         0.00         0.00
    163.7       10.74            0.00            0.00         10.74         0.00         0.00
    159.1       10.71            0.00            0.00         10.71         0.00         0.00
    154.4       10.67            0.00            0.00         10.67         0.00         0.00
    149.8       10.63            0.00            0.00         10.63         0.00         0.00
    145.1       10.59            0.00            0.00         10.59         0.00         0.00
    140.5       10.55            0.00            0.00         10.55         0.00         0.00
    135.8       10.51            0.00            0.00         10.51         0.00         0.00
    131.2       10.46            0.00            0.00         10.46         0.00         0.00
    126.5       10.42            0.00            0.00         10.42         0.00         0.00
    121.9       10.37            0.00            0.00         10.37         0.00         0.00
    117.2       10.32            0.00            0.00         10.32         0.00         0.00
    112.6       10.27            0.00            0.00         10.27         0.00         0.00
    107.9       10.22            0.00            0.00         10.22         0.00         0.00
    103.3       10.17            0.00            0.00         10.17         0.00         0.00
     98.6       10.11            0.00            0.00         10.11         0.00         0.00
     94.0       10.05            0.00            0.00         10.05         0.00         0.00
     89.3        9.99            0.00            0.00          9.99         0.00         0.00
     84.7        9.93            0.00            0.00          9.93         0.00         0.00
     80.0        9.86            0.00            0.00          9.86         0.00         0.00
     75.4        9.79            0.00            0.00          9.79         0.00         0.00
     70.7        9.72            0.00            0.00          9.72         0.00         0.00
     66.1        9.64            0.00            0.00          9.64         0.00         0.00
     61.4        9.55            0.00            0.00          9.55         0.00         0.00
     56.8        9.46            0.00            0.00          9.46         0.00         0.00
     52.1        9.37            0.00            0.00          9.37         0.00         0.00
     47.5        9.26            0.00            0.00          9.26         0.00         0.00
     42.8        9.15            0.00            0.00          9.15         0.00         0.00
     38.2        9.02            0.00            0.00          9.02         0.00         0.00
     33.5        8.88            0.00            0.00          8.88         0.00         0.00
     28.9        8.73            0.00            0.00          8.73         0.00         0.00
     24.2        8.54            0.00            0.00          8.54         0.00         0.00
     19.6        8.33            0.00            0.00          8.33         0.00         0.00
     14.9        8.06            0.00            0.00          8.06         0.00         0.00
     10.3        7.71            0.00            0.00          7.71         0.00         0.00
      5.6        7.17            0.00            0.00          7.17         0.00         0.00
      1.0        5.83            0.00            0.00          5.83         0.00         0.00


Harvested Random Seeds after Generation of the Random Numbers:

     65026800 K 1
            0 K 2


Hub-Height Simulated Turbulence Statistical Summary:

   Type of Wind        Min (m/s)   Mean (m/s)    Max (m/s)  Sigma (m/s)       TI (%)
   ----------------    ---------   ----------    ---------  -----------       ------
   Longitudinal (u)         8.87         9.99        11.15        0.325        3.257
   Lateral (v)             -1.00         0.00         0.82        0.258        2.578
   Vertical (w)            -0.57         0.00         0.44        0.139        1.386
   U component              8.87         9.99        11.15        0.325        3.257
   V component             -1.00         0.00         0.82        0.258        2.578
   W component             -0.57         0.00         0.44        0.139        1.386
   Horizontal (U&V)         8.88         9.99        11.15        0.326        3.257
   Total                    8.88        10.00        11.15        0.326        3.257

                       Min Reynolds     Mean Reynolds    Max Reynolds    Correlation
   Product             Stress (m/s)^2   Stress (m/s)^2   Stress (m/s)^2  Coefficient
   ----------------    --------------   --------------   --------------  -----------
   u'w'                     -0.179            -0.003             0.210        -0.068
   u'v'                     -0.639            -0.022             0.346        -0.268
   v'w'                     -0.212            -0.002             0.277        -0.050


   Friction Velocity (Ustar)  =      0.055 m/s
   Maximum Instantaneous TKE  =      0.739 (m/s)^2
   Maximum Instantaneous CTKE =      0.321 (m/s)^2


Grid Point Variance Summary:

   Y-coord  -79.05  -74.40  -69.75  -65.10  -60.45  -55.80  -51.15  -46.50  -41.85  -37.20  -32.55  -27.90  -23.25  -18.60  -13.95   -9.30   -4.65    0.00    4.65    9.30   13.95   18.60   23.25   27.90   32.55   37.20   41.85   46.50   51.15   55.80   60.45   65.10   69.75   74.40   79.05

   Height   Standard deviation at grid points for the u component:
   168.40    0.276   0.294   0.288   0.290   0.283   0.267   0.251   0.271   0.275   0.249   0.273   0.278   0.282   0.297   0.284   0.296   0.292   0.311   0.301   0.309   0.316   0.313   0.306   0.320   0.319   0.308   0.313   0.293   0.302   0.280   0.293   0.276   0.286   0.275   0.285
   163.75    0.292   0.288   0.286   0.282   0.284   0.286   0.282   0.283   0.275   0.267   0.288   0.273   0.291   0.286   0.306   0.306   0.287   0.296   0.296   0.303   0.296   0.313   0.319   0.307   0.305   0.305   0.282   0.281   0.282   0.297   0.304   0.301   0.274   0.292   0.295
   159.10    0.297   0.296   0.281   0.281   0.297   0.288   0.289   0.281   0.268   0.281   0.286   0.285   0.286   0.282   0.319   0.305   0.287   0.296   0.314   0.308   0.300   0.335   0.328   0.296   0.282   0.280   0.278   0.269   0.281   0.288   0.295   0.304   0.284   0.292   0.293
   154.45    0.300   0.295   0.285   0.292   0.285   0.288   0.295   0.299   0.276   0.280   0.292   0.284   0.288   0.282   0.296   0.305   0.293   0.294   0.308   0.301   0.303   0.323   0.315   0.295   0.272   0.275   0.280   0.298   0.288   0.295   0.296   0.300   0.289   0.289   0.294
   149.80    0.315   0.304   0.285   0.287   0.282   0.289   0.312   0.308   0.302   0.276   0.283   0.273   0.265   0.264   0.277   0.298   0.305   0.312   0.308   0.298   0.294   0.305   0.315   0.293   0.254   0.254   0.272   0.278   0.288   0.280   0.292   0.305   0.304   0.314   0.302
   145.15    0.327   0.312   0.294   0.302   0.292   0.295   0.309   0.316   0.306   0.285   0.271   0.275   0.290   0.276   0.281   0.292   0.297   0.317   0.320   0.302   0.320   0.291   0.291   0.280   0.263   0.262   0.275   0.279   0.286   0.289   0.294   0.305   0.311   0.306   0.296
   140.50    0.298   0.307   0.308   0.294   0.272   0.295   0.292   0.300   0.288   0.282   0.270   0.273   0.269   0.274   0.281   0.305   0.302   0.301   0.308   0.302   0.300   0.285   0.269   0.252   0.254   0.277   0.284   0.289   0.299   0.301   0.296   0.303   0.334   0.309   0.311
   135.85    0.306   0.303   0.301   0.286   0.276   0.291   0.296   0.307   0.316   0.282   0.271   0.264   0.255   0.282   0.285   0.277   0.277   0.297   0.310   0.312   0.286   0.266   0.260   0.269   0.277   0.286   0.285   0.293   0.287   0.275   0.293   0.304   0.319   0.316   0.305
   131.20    0.319   0.318   0.301   0.293   0.293   0.303   0.308   0.309   0.307   0.316   0.285   0.269   0.260   0.284   0.286   0.266   0.268   0.294   0.291   0.292   0.279   0.284   0.284   0.295   0.289   0.282   0.283   0.277   0.279   0.293   0.299   0.303   0.331   0.314   0.320
   126.55    0.309   0.301   0.310   0.298   0.290   0.283   0.297   0.302   0.315   0.320   0.305   0.281   0.265   0.284   0.293   0.282   0.269   0.278   0.285   0.287   0.307   0.289   0.286   0.294   0.298   0.286   0.277   0.278   0.273   0.288   0.301   0.309   0.327   0.317   0.303
   121.90    0.292   0.289   0.305   0.290   0.304   0.292   0.292   0.312   0.299   0.311   0.302   0.262   0.259   0.281   0.288   0.284   0.273   0.268   0.274   0.298   0.299   0.323   0.308   0.313   0.309   0.298   0.298   0.281   0.288   0.294   0.311   0.302   0.315   0.293   0.311
   117.25    0.291   0.290   0.297   0.300   0.305   0.295   0.293   0.314   0.329   0.317   0.276   0.264   0.264   0.293   0.295   0.308   0.293   0.284   0.294   0.295   0.311   0.316   0.314   0.300   0.300   0.292   0.305   0.294   0.291   0.302   0.313   0.299   0.312   0.318   0.304
   112.60    0.278   0.286   0.284   0.280   0.297   0.292   0.281   0.304   0.310   0.293   0.281   0.262   0.291   0.292   0.277   0.278   0.284   0.289   0.299   0.280   0.299   0.297   0.293   0.311   0.304   0.310   0.308   0.299   0.314   0.301   0.305   0.318   0.317   0.311   0.296
   107.95    0.278   0.288   0.274   0.294   0.295   0.299   0.307   0.297   0.292   0.301   0.289   0.286   0.278   0.280   0.290   0.287   0.295   0.286   0.301   0.293   0.299   0.287   0.300   0.312   0.305   0.307   0.303   0.304   0.313   0.310   0.327   0.324   0.336   0.318   0.301
   103.30    0.297   0.312   0.297   0.287   0.314   0.314   0.304   0.300   0.304   0.292   0.285   0.293   0.284   0.290   0.287   0.301   0.288   0.301   0.312   0.297   0.296   0.305   0.303   0.312   0.325   0.326   0.310   0.320   0.313   0.320   0.328   0.319   0.312   0.324   0.317
    98.65    0.305   0.325   0.325   0.298   0.325   0.324   0.315   0.307   0.297   0.295   0.281   0.275   0.283   0.293   0.293   0.301   0.296   0.316   0.321   0.305   0.300   0.323   0.313   0.303   0.297   0.325   0.327   0.335   0.333   0.321   0.309   0.315   0.314   0.312   0.321
    94.00    0.327   0.323   0.317   0.317   0.324   0.314   0.316   0.311   0.299   0.294   0.290   0.285   0.276   0.277   0.285   0.307   0.315   0.317   0.305   0.320   0.308   0.330   0.321   0.298   0.317   0.312   0.342   0.332   0.317   0.310   0.314   0.324   0.329   0.322   0.321
    89.35    0.312   0.317   0.340   0.325   0.326   0.326   0.328   0.310   0.306   0.294   0.271   0.292   0.267   0.267   0.290   0.300   0.326   0.325   0.313   0.310   0.315   0.316   0.326   0.310   0.310   0.327   0.333   0.329   0.316   0.317   0.320   0.313   0.308   0.322   0.304
    84.70    0.290   0.335   0.333   0.326   0.331   0.313   0.317   0.318   0.301   0.315   0.297   0.289   0.278   0.283   0.306   0.312   0.318   0.326   0.310   0.305   0.310   0.311   0.318   0.311   0.325   0.327   0.331   0.329   0.315   0.304   0.312   0.295   0.293   0.293   0.317
    80.05    0.309   0.313   0.329   0.329   0.341   0.316   0.317   0.323   0.325   0.310   0.297   0.290   0.284   0.288   0.316   0.323   0.322   0.316   0.308   0.323   0.306   0.307   0.334   0.322   0.329   0.336   0.329   0.334   0.308   0.289   0.293   0.292   0.289   0.286   0.321
    75.40    0.288   0.310   0.310   0.328   0.342   0.319   0.334   0.321   0.304   0.316   0.315   0.298   0.288   0.298   0.333   0.326   0.336   0.314   0.323   0.322   0.316   0.323   0.331   0.323   0.327   0.334   0.340   0.319   0.305   0.284   0.280   0.289   0.286   0.297   0.320
    70.75    0.302   0.292   0.318   0.331   0.333   0.340   0.314   0.327   0.330   0.326   0.325   0.328   0.295   0.309   0.322   0.322   0.339   0.350   0.327   0.336   0.318   0.319   0.325   0.335   0.335   0.327   0.334   0.322   0.281   0.264   0.262   0.288   0.278   0.289   0.324
    66.10    0.306   0.314   0.333   0.344   0.353   0.345   0.324   0.324   0.324   0.335   0.342   0.331   0.317   0.325   0.329   0.347   0.333   0.328   0.329   0.334   0.312   0.314   0.333   0.327   0.325   0.341   0.329   0.305   0.295   0.288   0.258   0.276   0.273   0.273   0.293
    61.45    0.333   0.333   0.345   0.371   0.351   0.365   0.340   0.343   0.334   0.345   0.355   0.335   0.320   0.347   0.351   0.363   0.365   0.338   0.328   0.327   0.330   0.317   0.308   0.327   0.320   0.322   0.310   0.295   0.305   0.287   0.289   0.302   0.289   0.287   0.295
    56.80    0.337   0.319   0.339   0.349   0.367   0.378   0.334   0.336   0.332   0.336   0.336   0.310   0.332   0.352   0.359   0.379   0.350   0.332   0.333   0.326   0.331   0.334   0.335   0.322   0.320   0.321   0.318   0.312   0.318   0.306   0.312   0.318   0.316   0.323   0.315
    52.15    0.316   0.312   0.337   0.342   0.359   0.353   0.328   0.309   0.301   0.314   0.331   0.330   0.324   0.353   0.361   0.357   0.347   0.339   0.320   0.330   0.326   0.324   0.324   0.315   0.318   0.332   0.313   0.304   0.321   0.316   0.335   0.329   0.315   0.326   0.337
    47.50    0.307   0.325   0.333   0.329   0.338   0.347   0.313   0.326   0.313   0.296   0.318   0.326   0.332   0.358   0.360   0.336   0.341   0.329   0.325   0.331   0.312   0.325   0.323   0.315   0.316   0.309   0.299   0.291   0.318   0.351   0.357   0.356   0.351   0.333   0.333
    42.85    0.301   0.312   0.322   0.325   0.316   0.316   0.320   0.304   0.309   0.301   0.330   0.341   0.345   0.359   0.376   0.338   0.335   0.329   0.289   0.300   0.324   0.338   0.336   0.328   0.311   0.306   0.306   0.300   0.327   0.331   0.340   0.352   0.347   0.370   0.353
    38.20    0.306   0.303   0.315   0.307   0.310   0.308   0.309   0.308   0.313   0.311   0.331   0.350   0.333   0.343   0.349   0.329   0.323   0.299   0.275   0.300   0.308   0.325   0.307   0.310   0.301   0.302   0.323   0.325   0.332   0.335   0.344   0.348   0.372   0.381   0.369
    33.55    0.278   0.299   0.306   0.316   0.304   0.305   0.321   0.317   0.298   0.314   0.341   0.348   0.354   0.349   0.328   0.300   0.310   0.294   0.297   0.305   0.311   0.328   0.297   0.301   0.294   0.313   0.302   0.324   0.358   0.364   0.381   0.377   0.381   0.394   0.378
    28.90    0.273   0.278   0.282   0.311   0.286   0.311   0.301   0.303   0.305   0.319   0.346   0.351   0.347   0.322   0.316   0.302   0.306   0.296   0.301   0.306   0.316   0.311   0.302   0.303   0.305   0.298   0.302   0.323   0.363   0.384   0.381   0.385   0.377   0.382   0.397
    24.25    0.272   0.283   0.312   0.297   0.301   0.305   0.310   0.285   0.294   0.328   0.337   0.332   0.323   0.309   0.305   0.317   0.321   0.302   0.288   0.297   0.315   0.300   0.294   0.301   0.303   0.292   0.296   0.321   0.353   0.386   0.386   0.383   0.407   0.415   0.388
    19.60    0.272   0.293   0.290   0.307   0.306   0.286   0.295   0.289   0.309   0.326   0.319   0.322   0.314   0.325   0.316   0.313   0.311   0.313   0.306   0.296   0.311   0.314   0.305   0.298   0.298   0.308   0.320   0.338   0.347   0.369   0.387   0.397   0.393   0.382   0.394
    14.95    0.300   0.286   0.280   0.287   0.291   0.291   0.309   0.285   0.303   0.295   0.313   0.322   0.313   0.312   0.327   0.327   0.329   0.318   0.313   0.318   0.315   0.337   0.317   0.315   0.300   0.315   0.331   0.350   0.354   0.359   0.367   0.370   0.375   0.376   0.371
    10.30    0.289   0.278   0.296   0.287   0.291   0.285   0.283   0.293   0.294   0.311   0.302   0.308   0.319   0.313   0.328   0.331   0.324   0.324   0.324   0.329   0.329   0.325   0.318   0.300   0.293   0.290   0.337   0.350   0.357   0.376   0.356   0.354   0.368   0.369   0.361
     5.65    0.308   0.281   0.281   0.281   0.282   0.282   0.285   0.275   0.285   0.288   0.317   0.302   0.307   0.307   0.314   0.320   0.307   0.334   0.343   0.337   0.335   0.308   0.310   0.310   0.284   0.290   0.328   0.346   0.371   0.376   0.347   0.349   0.353   0.374   0.375
     1.00    0.308   0.304   0.292   0.280   0.269   0.284   0.263   0.268   0.281   0.298   0.306   0.317   0.305   0.316   0.323   0.314   0.316   0.308   0.326   0.316   0.316   0.302   0.300   0.295   0.311   0.303   0.321   0.339   0.356   0.347   0.333   0.329   0.342   0.356   0.361

   Height   Standard deviation at grid points for the v component:
   168.40    0.234   0.249   0.244   0.248   0.240   0.240   0.223   0.227   0.231   0.229   0.219   0.216   0.217   0.224   0.219   0.216   0.219   0.230   0.241   0.228   0.229   0.216   0.216   0.215   0.220   0.228   0.230   0.219   0.212   0.220   0.222   0.228   0.211   0.222   0.229
   163.75    0.239   0.244   0.234   0.221   0.212   0.221   0.232   0.226   0.231   0.244   0.229   0.223   0.229   0.220   0.224   0.228   0.227   0.229   0.227   0.226   0.222   0.215   0.222   0.224   0.223   0.224   0.223   0.224   0.215   0.208   0.215   0.220   0.227   0.222   0.222
   159.10    0.236   0.255   0.244   0.232   0.226   0.224   0.231   0.237   0.235   0.236   0.233   0.233   0.230   0.227   0.223   0.226   0.220   0.238   0.231   0.231   0.223   0.225   0.212   0.213   0.210   0.215   0.221   0.209   0.202   0.199   0.209   0.210   0.218   0.223   0.220
   154.45    0.246   0.233   0.241   0.235   0.228   0.228   0.232   0.230   0.232   0.228   0.229   0.235   0.215   0.225   0.227   0.239   0.229   0.252   0.237   0.238   0.229   0.234   0.229   0.215   0.214   0.211   0.204   0.200   0.209   0.210   0.211   0.205   0.221   0.216   0.215
   149.80    0.252   0.247   0.239   0.241   0.236   0.243   0.236   0.231   0.231   0.226   0.222   0.223   0.223   0.222   0.225   0.225   0.226   0.235   0.240   0.230   0.232   0.246   0.236   0.232   0.226   0.224   0.205   0.202   0.208   0.213   0.213   0.227   0.221   0.210   0.216
   145.15    0.275   0.253   0.249   0.232   0.224   0.225   0.231   0.220   0.212   0.221   0.225   0.220   0.226   0.218   0.218   0.228   0.231   0.231   0.244   0.225   0.244   0.240   0.219   0.229   0.222   0.224   0.211   0.207   0.193   0.209   0.215   0.225   0.224   0.213   0.211
   140.50    0.256   0.241   0.251   0.243   0.238   0.232   0.215   0.205   0.203   0.210   0.216   0.218   0.222   0.219   0.218   0.221   0.220   0.229   0.244   0.231   0.243   0.249   0.235   0.220   0.209   0.215   0.221   0.214   0.217   0.212   0.210   0.219   0.214   0.220   0.214
   135.85    0.251   0.244   0.250   0.260   0.239   0.227   0.209   0.219   0.222   0.204   0.220   0.218   0.235   0.225   0.217   0.207   0.214   0.223   0.236   0.258   0.239   0.242   0.244   0.226   0.224   0.215   0.217   0.227   0.219   0.212   0.218   0.219   0.213   0.216   0.224
   131.20    0.235   0.251   0.255   0.259   0.247   0.241   0.239   0.218   0.231   0.229   0.246   0.240   0.242   0.241   0.223   0.215   0.215   0.220   0.225   0.240   0.238   0.242   0.244   0.230   0.217   0.211   0.214   0.223   0.204   0.202   0.208   0.217   0.221   0.230   0.230
   126.55    0.230   0.234   0.246   0.273   0.253   0.243   0.252   0.244   0.254   0.252   0.267   0.254   0.242   0.240   0.233   0.226   0.220   0.226   0.222   0.221   0.232   0.250   0.241   0.232   0.222   0.222   0.219   0.224   0.214   0.195   0.209   0.223   0.217   0.226   0.221
   121.90    0.216   0.239   0.241   0.261   0.259   0.258   0.260   0.252   0.251   0.259   0.269   0.251   0.247   0.241   0.234   0.231   0.236   0.223   0.232   0.227   0.242   0.248   0.248   0.237   0.223   0.216   0.215   0.213   0.207   0.202   0.208   0.209   0.221   0.230   0.235
   117.25    0.229   0.248   0.258   0.269   0.269   0.267   0.271   0.274   0.269   0.261   0.269   0.255   0.244   0.249   0.231   0.217   0.224   0.229   0.228   0.232   0.250   0.234   0.234   0.249   0.225   0.224   0.219   0.205   0.205   0.193   0.203   0.210   0.222   0.233   0.230
   112.60    0.243   0.243   0.265   0.266   0.265   0.270   0.271   0.273   0.262   0.271   0.271   0.272   0.250   0.236   0.239   0.227   0.227   0.229   0.233   0.246   0.250   0.249   0.249   0.236   0.235   0.225   0.223   0.214   0.216   0.215   0.204   0.200   0.230   0.232   0.229
   107.95    0.256   0.253   0.260   0.278   0.272   0.272   0.278   0.275   0.269   0.254   0.257   0.254   0.250   0.258   0.243   0.253   0.245   0.239   0.242   0.251   0.247   0.247   0.257   0.244   0.236   0.232   0.217   0.224   0.223   0.214   0.212   0.208   0.226   0.243   0.241
   103.30    0.262   0.259   0.272   0.271   0.284   0.272   0.274   0.260   0.259   0.272   0.247   0.257   0.267   0.263   0.255   0.245   0.252   0.243   0.243   0.232   0.243   0.247   0.257   0.244   0.251   0.243   0.239   0.230   0.236   0.226   0.223   0.227   0.226   0.242   0.250
    98.65    0.258   0.270   0.259   0.280   0.270   0.262   0.259   0.263   0.251   0.256   0.255   0.260   0.267   0.268   0.260   0.248   0.252   0.247   0.239   0.242   0.239   0.232   0.238   0.246   0.246   0.248   0.223   0.240   0.229   0.228   0.238   0.232   0.231   0.237   0.246
    94.00    0.266   0.273   0.280   0.271   0.274   0.258   0.247   0.250   0.241   0.247   0.252   0.246   0.270   0.273   0.276   0.266   0.256   0.253   0.256   0.240   0.244   0.241   0.232   0.238   0.232   0.237   0.236   0.244   0.231   0.241   0.239   0.238   0.231   0.241   0.241
    89.35    0.275   0.280   0.282   0.275   0.255   0.245   0.255   0.251   0.248   0.249   0.259   0.259   0.255   0.259   0.263   0.257   0.259   0.258   0.248   0.240   0.232   0.239   0.238   0.235   0.223   0.233   0.220   0.233   0.241   0.255   0.257   0.240   0.231   0.234   0.249
    84.70    0.282   0.283   0.278   0.275   0.248   0.245   0.248   0.246   0.241   0.248   0.251   0.251   0.258   0.254   0.260   0.258   0.252   0.250   0.254   0.256   0.239   0.240   0.230   0.229   0.222   0.222   0.231   0.239   0.249   0.259   0.263   0.245   0.242   0.246   0.251
    80.05    0.271   0.286   0.279   0.270   0.256   0.250   0.254   0.238   0.240   0.236   0.248   0.267   0.254   0.262   0.254   0.259   0.258   0.241   0.246   0.243   0.232   0.236   0.226   0.233   0.221   0.228   0.233   0.240   0.235   0.243   0.254   0.262   0.236   0.239   0.240
    75.40    0.278   0.277   0.274   0.273   0.255   0.243   0.248   0.244   0.243   0.245   0.237   0.251   0.257   0.268   0.249   0.250   0.253   0.236   0.241   0.246   0.240   0.224   0.227   0.228   0.214   0.225   0.221   0.227   0.220   0.238   0.249   0.272   0.245   0.230   0.218
    70.75    0.278   0.278   0.282   0.269   0.247   0.234   0.246   0.246   0.235   0.250   0.261   0.256   0.248   0.273   0.267   0.244   0.241   0.239   0.234   0.249   0.239   0.225   0.230   0.224   0.221   0.212   0.217   0.234   0.229   0.236   0.254   0.258   0.254   0.240   0.229
    66.10    0.285   0.290   0.277   0.279   0.254   0.246   0.244   0.251   0.261   0.257   0.252   0.258   0.259   0.264   0.253   0.240   0.239   0.231   0.234   0.251   0.222   0.234   0.230   0.240   0.223   0.220   0.218   0.245   0.243   0.247   0.263   0.261   0.238   0.242   0.224
    61.45    0.289   0.286   0.276   0.267   0.250   0.245   0.249   0.251   0.251   0.261   0.262   0.252   0.254   0.245   0.233   0.234   0.236   0.234   0.241   0.250   0.229   0.225   0.226   0.235   0.228   0.229   0.226   0.255   0.265   0.273   0.268   0.246   0.240   0.232   0.237
    56.80    0.280   0.290   0.275   0.258   0.239   0.239   0.237   0.237   0.254   0.249   0.252   0.262   0.262   0.250   0.229   0.235   0.231   0.235   0.242   0.244   0.238   0.248   0.242   0.232   0.224   0.226   0.234   0.237   0.269   0.279   0.251   0.250   0.243   0.230   0.233
    52.15    0.276   0.278   0.283   0.265   0.246   0.234   0.228   0.233   0.238   0.246   0.256   0.258   0.261   0.250   0.244   0.239   0.237   0.234   0.246   0.247   0.254   0.256   0.247   0.239   0.225   0.228   0.235   0.249   0.261   0.269   0.270   0.239   0.240   0.225   0.219
    47.50    0.263   0.276   0.283   0.264   0.252   0.239   0.238   0.230   0.236   0.236   0.257   0.255   0.255   0.249   0.248   0.245   0.254   0.245   0.246   0.245   0.259   0.266   0.251   0.239   0.244   0.227   0.240   0.245   0.255   0.252   0.261   0.240   0.234   0.227   0.224
    42.85    0.267   0.268   0.270   0.253   0.251   0.258   0.261   0.244   0.231   0.237   0.252   0.254   0.258   0.242   0.248   0.241   0.262   0.258   0.267   0.253   0.274   0.292   0.266   0.246   0.241   0.237   0.246   0.245   0.256   0.254   0.263   0.252   0.236   0.241   0.233
    38.20    0.269   0.261   0.262   0.263   0.263   0.257   0.257   0.249   0.240   0.239   0.241   0.252   0.253   0.251   0.243   0.240   0.250   0.253   0.255   0.257   0.269   0.289   0.288   0.251   0.241   0.240   0.250   0.256   0.257   0.251   0.265   0.271   0.255   0.240   0.227
    33.55    0.254   0.252   0.255   0.256   0.263   0.269   0.251   0.244   0.236   0.241   0.248   0.262   0.258   0.243   0.236   0.248   0.253   0.251   0.247   0.252   0.264   0.280   0.277   0.257   0.248   0.250   0.244   0.273   0.255   0.245   0.265   0.264   0.257   0.237   0.237
    28.90    0.243   0.243   0.262   0.259   0.271   0.268   0.266   0.250   0.237   0.245   0.245   0.253   0.252   0.246   0.240   0.247   0.259   0.263   0.255   0.240   0.259   0.269   0.256   0.254   0.261   0.255   0.262   0.270   0.261   0.261   0.264   0.259   0.253   0.236   0.245
    24.25    0.252   0.250   0.269   0.257   0.263   0.260   0.247   0.237   0.236   0.238   0.243   0.250   0.261   0.250   0.245   0.247   0.240   0.251   0.255   0.255   0.268   0.254   0.259   0.248   0.261   0.286   0.270   0.268   0.270   0.268   0.263   0.267   0.262   0.266   0.258
    19.60    0.246   0.250   0.254   0.259   0.234   0.236   0.238   0.230   0.246   0.242   0.241   0.258   0.263   0.255   0.257   0.252   0.252   0.255   0.261   0.263   0.275   0.273   0.270   0.272   0.264   0.278   0.276   0.268   0.267   0.263   0.259   0.265   0.266   0.272   0.278
    14.95    0.259   0.256   0.253   0.255   0.244   0.230   0.227   0.233   0.242   0.254   0.248   0.247   0.250   0.251   0.254   0.265   0.258   0.261   0.263   0.265   0.275   0.268   0.280   0.271   0.277   0.271   0.269   0.267   0.280   0.277   0.274   0.271   0.265   0.277   0.276
    10.30    0.251   0.247   0.236   0.254   0.230   0.221   0.226   0.220   0.236   0.249   0.253   0.250   0.250   0.244   0.253   0.261   0.269   0.266   0.257   0.252   0.276   0.279   0.282   0.283   0.282   0.274   0.276   0.264   0.278   0.292   0.284   0.269   0.277   0.271   0.267
     5.65    0.241   0.241   0.239   0.236   0.229   0.228   0.230   0.233   0.230   0.247   0.255   0.272   0.271   0.256   0.252   0.259   0.259   0.250   0.257   0.278   0.270   0.289   0.295   0.303   0.280   0.267   0.277   0.286   0.291   0.279   0.290   0.285   0.274   0.265   0.269
     1.00    0.248   0.234   0.223   0.226   0.229   0.228   0.250   0.231   0.243   0.250   0.246   0.245   0.256   0.252   0.256   0.257   0.265   0.268   0.257   0.273   0.284   0.278   0.283   0.285   0.275   0.273   0.270   0.275   0.293   0.286   0.278   0.282   0.258   0.252   0.251

   Height   Standard deviation at grid points for the w component:
   168.40    0.145   0.143   0.149   0.148   0.153   0.157   0.153   0.151   0.153   0.143   0.149   0.148   0.145   0.145   0.145   0.140   0.138   0.134   0.134   0.133   0.134   0.140   0.139   0.137   0.139   0.139   0.136   0.133   0.133   0.139   0.139   0.141   0.143   0.141   0.142
   163.75    0.146   0.148   0.150   0.150   0.152   0.152   0.154   0.154   0.147   0.142   0.141   0.146   0.144   0.140   0.138   0.138   0.136   0.135   0.136   0.134   0.139   0.139   0.138   0.135   0.139   0.140   0.138   0.137   0.137   0.139   0.140   0.139   0.141   0.144   0.140
   159.10    0.146   0.151   0.148   0.147   0.149   0.147   0.149   0.145   0.146   0.146   0.145   0.144   0.145   0.139   0.135   0.139   0.142   0.137   0.140   0.139   0.137   0.134   0.136   0.130   0.140   0.140   0.139   0.139   0.148   0.140   0.138   0.137   0.137   0.143   0.140
   154.45    0.147   0.147   0.149   0.150   0.153   0.144   0.145   0.143   0.145   0.143   0.140   0.141   0.141   0.139   0.138   0.140   0.141   0.142   0.138   0.136   0.140   0.137   0.136   0.134   0.138   0.139   0.140   0.148   0.146   0.148   0.144   0.142   0.143   0.142   0.143
   149.80    0.147   0.151   0.147   0.145   0.146   0.141   0.138   0.139   0.141   0.142   0.141   0.141   0.137   0.135   0.136   0.130   0.136   0.137   0.139   0.139   0.134   0.130   0.137   0.138   0.138   0.140   0.145   0.151   0.146   0.146   0.147   0.142   0.145   0.140   0.144
   145.15    0.143   0.140   0.144   0.143   0.141   0.141   0.144   0.145   0.139   0.140   0.141   0.142   0.139   0.136   0.132   0.133   0.135   0.132   0.133   0.133   0.134   0.133   0.139   0.138   0.135   0.136   0.145   0.146   0.147   0.149   0.145   0.146   0.145   0.141   0.139
   140.50    0.148   0.144   0.145   0.146   0.146   0.145   0.147   0.146   0.144   0.147   0.145   0.144   0.150   0.139   0.132   0.136   0.135   0.134   0.132   0.133   0.133   0.136   0.133   0.137   0.133   0.140   0.148   0.150   0.153   0.151   0.147   0.147   0.145   0.145   0.141
   135.85    0.147   0.143   0.150   0.146   0.146   0.146   0.145   0.146   0.143   0.146   0.143   0.142   0.146   0.144   0.138   0.136   0.137   0.134   0.135   0.132   0.129   0.132   0.135   0.132   0.132   0.139   0.142   0.150   0.150   0.148   0.150   0.155   0.148   0.150   0.148
   131.20    0.148   0.145   0.147   0.146   0.146   0.146   0.150   0.145   0.148   0.150   0.144   0.139   0.142   0.137   0.135   0.136   0.133   0.133   0.137   0.135   0.132   0.131   0.134   0.135   0.135   0.144   0.145   0.144   0.144   0.148   0.154   0.154   0.149   0.150   0.150
   126.55    0.146   0.149   0.149   0.145   0.148   0.152   0.150   0.144   0.145   0.142   0.143   0.138   0.140   0.135   0.137   0.134   0.128   0.124   0.129   0.136   0.135   0.130   0.130   0.138   0.145   0.147   0.140   0.142   0.142   0.148   0.151   0.156   0.153   0.148   0.145
   121.90    0.144   0.147   0.150   0.152   0.155   0.150   0.144   0.146   0.148   0.146   0.139   0.140   0.139   0.136   0.136   0.129   0.126   0.127   0.129   0.130   0.134   0.132   0.139   0.141   0.141   0.145   0.144   0.143   0.144   0.151   0.150   0.150   0.154   0.149   0.146
   117.25    0.139   0.147   0.144   0.151   0.155   0.153   0.146   0.148   0.144   0.141   0.149   0.142   0.142   0.142   0.136   0.131   0.127   0.131   0.129   0.134   0.132   0.134   0.134   0.139   0.144   0.140   0.146   0.151   0.146   0.149   0.147   0.147   0.151   0.143   0.149
   112.60    0.145   0.147   0.149   0.146   0.151   0.152   0.153   0.148   0.147   0.150   0.151   0.147   0.145   0.144   0.142   0.137   0.132   0.132   0.132   0.138   0.133   0.133   0.137   0.139   0.142   0.139   0.140   0.148   0.148   0.145   0.145   0.146   0.143   0.140   0.145
   107.95    0.144   0.142   0.148   0.148   0.153   0.155   0.151   0.149   0.146   0.151   0.151   0.147   0.145   0.147   0.141   0.140   0.136   0.136   0.135   0.135   0.138   0.134   0.134   0.136   0.137   0.139   0.145   0.144   0.145   0.143   0.144   0.144   0.137   0.138   0.141
   103.30    0.142   0.141   0.147   0.148   0.148   0.148   0.143   0.146   0.148   0.148   0.143   0.143   0.142   0.145   0.136   0.136   0.138   0.136   0.140   0.142   0.139   0.135   0.136   0.134   0.140   0.141   0.142   0.141   0.145   0.141   0.140   0.138   0.139   0.133   0.139
    98.65    0.144   0.148   0.147   0.137   0.144   0.144   0.144   0.143   0.147   0.149   0.148   0.144   0.144   0.142   0.142   0.143   0.138   0.140   0.139   0.139   0.137   0.140   0.142   0.137   0.144   0.142   0.138   0.140   0.137   0.143   0.141   0.141   0.138   0.138   0.140
    94.00    0.151   0.146   0.144   0.147   0.144   0.142   0.144   0.143   0.145   0.146   0.150   0.150   0.145   0.142   0.143   0.148   0.141   0.146   0.141   0.141   0.142   0.137   0.141   0.143   0.141   0.143   0.138   0.141   0.144   0.141   0.143   0.142   0.133   0.133   0.137
    89.35    0.148   0.142   0.149   0.148   0.147   0.143   0.144   0.145   0.145   0.149   0.153   0.150   0.143   0.141   0.143   0.143   0.139   0.139   0.141   0.139   0.137   0.136   0.141   0.145   0.146   0.141   0.141   0.136   0.140   0.142   0.141   0.137   0.138   0.136   0.140
    84.70    0.149   0.142   0.143   0.142   0.143   0.142   0.144   0.143   0.143   0.148   0.147   0.146   0.139   0.136   0.142   0.140   0.139   0.138   0.139   0.145   0.137   0.140   0.141   0.144   0.144   0.140   0.135   0.136   0.141   0.142   0.145   0.141   0.143   0.139   0.142
    80.05    0.145   0.143   0.146   0.144   0.146   0.138   0.146   0.142   0.145   0.146   0.144   0.142   0.142   0.138   0.144   0.140   0.139   0.136   0.141   0.147   0.140   0.136   0.137   0.139   0.143   0.137   0.135   0.135   0.138   0.141   0.142   0.140   0.141   0.138   0.137
    75.40    0.141   0.143   0.143   0.141   0.140   0.142   0.134   0.143   0.145   0.145   0.138   0.144   0.146   0.144   0.144   0.147   0.138   0.137   0.144   0.144   0.144   0.137   0.136   0.136   0.135   0.138   0.136   0.132   0.136   0.136   0.137   0.136   0.132   0.135   0.135
    70.75    0.142   0.139   0.142   0.137   0.139   0.141   0.143   0.144   0.139   0.143   0.140   0.143   0.145   0.140   0.141   0.141   0.135   0.140   0.140   0.137   0.140   0.134   0.136   0.137   0.137   0.144   0.141   0.139   0.140   0.137   0.136   0.135   0.131   0.137   0.136
    66.10    0.139   0.136   0.140   0.140   0.139   0.145   0.145   0.143   0.138   0.141   0.141   0.139   0.141   0.140   0.138   0.136   0.141   0.142   0.137   0.137   0.138   0.136   0.138   0.138   0.143   0.144   0.141   0.141   0.141   0.140   0.134   0.138   0.136   0.138   0.136
    61.45    0.141   0.142   0.143   0.145   0.143   0.143   0.145   0.143   0.142   0.140   0.140   0.137   0.137   0.134   0.137   0.138   0.134   0.135   0.138   0.137   0.136   0.141   0.137   0.141   0.144   0.143   0.139   0.141   0.139   0.139   0.143   0.139   0.139   0.142   0.139
    56.80    0.138   0.138   0.142   0.142   0.141   0.138   0.142   0.145   0.139   0.143   0.132   0.140   0.137   0.140   0.139   0.140   0.136   0.138   0.141   0.140   0.142   0.141   0.139   0.140   0.140   0.144   0.140   0.139   0.137   0.139   0.141   0.139   0.137   0.137   0.134
    52.15    0.144   0.140   0.140   0.143   0.141   0.140   0.146   0.140   0.143   0.141   0.140   0.142   0.144   0.138   0.135   0.137   0.142   0.143   0.142   0.140   0.139   0.141   0.136   0.138   0.138   0.134   0.138   0.141   0.140   0.143   0.141   0.139   0.144   0.136   0.134
    47.50    0.143   0.145   0.138   0.143   0.140   0.141   0.144   0.145   0.143   0.143   0.137   0.142   0.143   0.143   0.143   0.135   0.137   0.138   0.138   0.135   0.136   0.137   0.137   0.139   0.140   0.137   0.139   0.148   0.146   0.141   0.145   0.140   0.141   0.136   0.131
    42.85    0.147   0.140   0.140   0.142   0.137   0.142   0.148   0.149   0.139   0.140   0.138   0.141   0.141   0.139   0.141   0.140   0.136   0.139   0.137   0.134   0.136   0.135   0.138   0.143   0.141   0.141   0.145   0.142   0.142   0.139   0.141   0.141   0.143   0.137   0.135
    38.20    0.147   0.141   0.144   0.138   0.139   0.142   0.143   0.142   0.141   0.134   0.140   0.138   0.140   0.142   0.141   0.137   0.139   0.137   0.141   0.135   0.136   0.135   0.141   0.143   0.138   0.139   0.143   0.138   0.139   0.138   0.138   0.142   0.138   0.138   0.132
    33.55    0.149   0.147   0.146   0.140   0.136   0.133   0.141   0.136   0.140   0.140   0.142   0.137   0.131   0.142   0.142   0.142   0.139   0.137   0.135   0.139   0.138   0.135   0.142   0.142   0.143   0.142   0.140   0.140   0.139   0.140   0.142   0.141   0.140   0.142   0.136
    28.90    0.150   0.147   0.144   0.136   0.136   0.138   0.140   0.139   0.136   0.144   0.141   0.140   0.138   0.138   0.140   0.134   0.135   0.140   0.138   0.138   0.135   0.139   0.141   0.140   0.140   0.144   0.139   0.136   0.138   0.138   0.137   0.130   0.139   0.138   0.132
    24.25    0.143   0.142   0.141   0.140   0.132   0.140   0.139   0.140   0.148   0.143   0.144   0.145   0.141   0.135   0.132   0.130   0.135   0.139   0.140   0.142   0.142   0.143   0.142   0.136   0.143   0.145   0.141   0.142   0.140   0.134   0.136   0.132   0.139   0.134   0.132
    19.60    0.140   0.145   0.144   0.136   0.136   0.142   0.141   0.140   0.143   0.141   0.139   0.143   0.142   0.140   0.134   0.136   0.136   0.136   0.139   0.144   0.147   0.143   0.141   0.139   0.137   0.141   0.143   0.136   0.134   0.132   0.135   0.135   0.138   0.141   0.136
    14.95    0.140   0.143   0.138   0.137   0.138   0.145   0.138   0.142   0.143   0.137   0.141   0.139   0.145   0.141   0.135   0.141   0.136   0.139   0.142   0.145   0.147   0.139   0.141   0.140   0.138   0.137   0.137   0.133   0.131   0.133   0.139   0.139   0.139   0.144   0.141
    10.30    0.142   0.142   0.135   0.133   0.138   0.138   0.140   0.139   0.142   0.139   0.140   0.135   0.139   0.140   0.139   0.142   0.144   0.139   0.145   0.145   0.142   0.146   0.139   0.140   0.139   0.135   0.140   0.135   0.135   0.136   0.137   0.137   0.143   0.147   0.141
     5.65    0.144   0.142   0.138   0.134   0.130   0.134   0.136   0.141   0.143   0.140   0.143   0.141   0.146   0.146   0.145   0.138   0.145   0.142   0.139   0.147   0.140   0.142   0.140   0.139   0.136   0.141   0.141   0.140   0.141   0.137   0.137   0.136   0.139   0.141   0.144
     1.00    0.142   0.142   0.139   0.136   0.132   0.131   0.131   0.139   0.143   0.143   0.148   0.144   0.146   0.143   0.151   0.149   0.147   0.143   0.149   0.143   0.141   0.136   0.141   0.139   0.136   0.141   0.138   0.136   0.141   0.137   0.137   0.139   0.135   0.139   0.142

   Mean standard deviation across all grid points:
      u component:    0.309 m/s
      v component:    0.244 m/s
      w component:    0.141 m/s


U-component (X) statistics from the interpolated hub point:

   Mean =   9.9913 m/s
   TI   =   3.2567 %


Processing complete.  5428.5 CPU seconds used.
