
This summary file was generated by TurbSim (from OpenFAST-v3.5.3) on 20-Apr-2025 at 08:12:31.


Runtime Options:

**********  Random seed #1
    RANLUX  Type of random number generator
         F  Output binary HH turbulence parameters?
         F  Output formatted turbulence parameters?
         F  Output AeroDyn HH files?
         T  Output AeroDyn FF files?
         F  Output BLADED FF files?
         F  Output tower data?
         F  Output HAWC FF files?
         F  Output formatted FF files?
         T  Output coherent turbulence time step file?
 0 -  NONE  IEC turbulence models scaled to exact specified standard deviation


Turbine/Model Specifications:

        37  Vertical grid-point matrix dimension
        35  Horizontal grid-point matrix dimension
     0.250  Time step [seconds]
   900.000  Analysis time [seconds]
   900.000  Usable output time [seconds]
    89.350  Hub height [m]
   167.400  Grid height [m]
   158.100  Grid width [m]
     0.000  Vertical flow angle [degrees]
     0.000  Horizontal flow angle [degrees]


Meteorological Boundary Conditions:

    TIMESR  User-input time series spectral model
       N/A  IEC standard
       N/A  IEC turbulence characteristic
       N/A  IEC turbulence type
       N/A  IEC Extreme Turbulence Model (ETM) "c" parameter [m/s]
       PL   Wind profile type
    90.000  Reference height [m]
    10.000  Reference wind speed [m/s]
       N/A  Jet height [m]
     0.120  Power law exponent
     0.030  Surface roughness length [m]


Non-IEC Meteorological Boundary Conditions:

    45.000  Site latitude [degrees]
     0.050  Gradient Richardson number
     0.480  Friction or shear velocity [m/s]
       N/A  Mixing layer depth [m]
       N/A  Mean hub u'w' Reynolds stress
       N/A  Mean hub u'v' Reynolds stress
       N/A  Mean hub v'w' Reynolds stress


Spatial Coherence Models:

       IEC  u-component coherence model
       IEC  v-component coherence model
       IEC  w-component coherence model
(   12.000, 0.353E-03)  u-component coherence parameters
(   12.000, 0.353E-03)  v-component coherence parameters
(   12.000, 0.353E-03)  w-component coherence parameters
       N/A  Coherence exponent


Coherent Turbulence Scaling Parameters:

.\EventData
            Name of the path containing the coherent turbulence data files
       les  Type of coherent turbulence data files
     1.000  Disturbance scale (ratio of wave height to rotor diameter)
     0.500  Fractional location of tower centerline from right
     0.500  Fractional location of hub height from the bottom of the dataset
    30.000  Minimum start time for coherent structures [seconds]


Profiles from User-Defined Time-Series Input:

  Height   Wind Speed   Horizontal Angle   Vertical Angle
   (m)        (m/s)          (deg)              (deg)    
  ------   ----------   ----------------   --------------
   94.00      10.00          -0.63                0.00


You have requested that the following file(s) be generated:

   /kfs3/scratch/agupta/Projects/RL_Incubator/FinalRuns_Veer/Seed4/./FFSim_Seed4/Cond00_v10.0_PL0.12_TI5.0/Case2_wdirp04/Seed_2/TurbSim/HighT14.bts (AeroDyn/TurbSim full-field wind file)


Turbulence Simulation Scaling Parameter Summary:

   Turbulence model used                            =  User-input time series
   Gradient Richardson number                       =    0.050
   Monin-Obukhov (M-O) z/L parameter                =    0.067
   Monin-Obukhov (M-O) length scale                 = 1340.250 m
   Mean wind speed at hub height                    =    9.991 m/s

   Wind profile type                                =  Power law
   Power law exponent                               =    0.120
   Mean shear across rotor disk                     =    0.019 (m/s)/m
   Assumed rotor diameter                           =  158.100 m
   Surface roughness length                         =    0.030 m

   Nyquist frequency of turbulent wind field        =    2.000 Hz

   Number of time steps in the FFT                  =     3600
   Number of time steps output                      =     3600
   Number of points simulated                       =     1296


Mean Flow Angles:

   Vertical   =   0.0 degrees
   Horizontal =   0.0 degrees

Mean Wind Speed Profile:

   Height    Wind Speed   Horizontal Angle  Vertical Angle  U-comp (X)   V-comp (Y)   W-comp (Z)
     (m)        (m/s)         (degrees)       (degrees)       (m/s)        (m/s)        (m/s)   
   ------    ----------   ----------------  --------------  ----------   ----------   ----------
    168.4       10.78            0.00            0.00         10.78         0.00         0.00
    163.7       10.74            0.00            0.00         10.74         0.00         0.00
    159.1       10.71            0.00            0.00         10.71         0.00         0.00
    154.4       10.67            0.00            0.00         10.67         0.00         0.00
    149.8       10.63            0.00            0.00         10.63         0.00         0.00
    145.1       10.59            0.00            0.00         10.59         0.00         0.00
    140.5       10.55            0.00            0.00         10.55         0.00         0.00
    135.8       10.51            0.00            0.00         10.51         0.00         0.00
    131.2       10.46            0.00            0.00         10.46         0.00         0.00
    126.5       10.42            0.00            0.00         10.42         0.00         0.00
    121.9       10.37            0.00            0.00         10.37         0.00         0.00
    117.2       10.32            0.00            0.00         10.32         0.00         0.00
    112.6       10.27            0.00            0.00         10.27         0.00         0.00
    107.9       10.22            0.00            0.00         10.22         0.00         0.00
    103.3       10.17            0.00            0.00         10.17         0.00         0.00
     98.6       10.11            0.00            0.00         10.11         0.00         0.00
     94.0       10.05            0.00            0.00         10.05         0.00         0.00
     89.3        9.99            0.00            0.00          9.99         0.00         0.00
     84.7        9.93            0.00            0.00          9.93         0.00         0.00
     80.0        9.86            0.00            0.00          9.86         0.00         0.00
     75.4        9.79            0.00            0.00          9.79         0.00         0.00
     70.7        9.72            0.00            0.00          9.72         0.00         0.00
     66.1        9.64            0.00            0.00          9.64         0.00         0.00
     61.4        9.55            0.00            0.00          9.55         0.00         0.00
     56.8        9.46            0.00            0.00          9.46         0.00         0.00
     52.1        9.37            0.00            0.00          9.37         0.00         0.00
     47.5        9.26            0.00            0.00          9.26         0.00         0.00
     42.8        9.15            0.00            0.00          9.15         0.00         0.00
     38.2        9.02            0.00            0.00          9.02         0.00         0.00
     33.5        8.88            0.00            0.00          8.88         0.00         0.00
     28.9        8.73            0.00            0.00          8.73         0.00         0.00
     24.2        8.54            0.00            0.00          8.54         0.00         0.00
     19.6        8.33            0.00            0.00          8.33         0.00         0.00
     14.9        8.06            0.00            0.00          8.06         0.00         0.00
     10.3        7.71            0.00            0.00          7.71         0.00         0.00
      5.6        7.17            0.00            0.00          7.17         0.00         0.00
      1.0        5.83            0.00            0.00          5.83         0.00         0.00


Harvested Random Seeds after Generation of the Random Numbers:

     65026800 K 1
            0 K 2


Hub-Height Simulated Turbulence Statistical Summary:

   Type of Wind        Min (m/s)   Mean (m/s)    Max (m/s)  Sigma (m/s)       TI (%)
   ----------------    ---------   ----------    ---------  -----------       ------
   Longitudinal (u)         8.42         9.99        11.55        0.587        5.870
   Lateral (v)             -1.15        -0.00         1.17        0.352        3.526
   Vertical (w)            -0.84         0.00         0.75        0.239        2.389
   U component              8.42         9.99        11.55        0.587        5.870
   V component             -1.15        -0.00         1.17        0.352        3.526
   W component             -0.84         0.00         0.75        0.239        2.389
   Horizontal (U&V)         8.42        10.00        11.55        0.586        5.862
   Total                    8.43        10.00        11.55        0.586        5.858

                       Min Reynolds     Mean Reynolds    Max Reynolds    Correlation
   Product             Stress (m/s)^2   Stress (m/s)^2   Stress (m/s)^2  Coefficient
   ----------------    --------------   --------------   --------------  -----------
   u'w'                     -0.866             0.007             0.829         0.051
   u'v'                     -1.024            -0.044             0.914        -0.215
   v'w'                     -0.349             0.010             0.704         0.122


   Friction Velocity (Ustar)  =      0.085 m/s
   Maximum Instantaneous TKE  =      1.317 (m/s)^2
   Maximum Instantaneous CTKE =      0.547 (m/s)^2


Grid Point Variance Summary:

   Y-coord  -79.05  -74.40  -69.75  -65.10  -60.45  -55.80  -51.15  -46.50  -41.85  -37.20  -32.55  -27.90  -23.25  -18.60  -13.95   -9.30   -4.65    0.00    4.65    9.30   13.95   18.60   23.25   27.90   32.55   37.20   41.85   46.50   51.15   55.80   60.45   65.10   69.75   74.40   79.05

   Height   Standard deviation at grid points for the u component:
   168.40    0.528   0.516   0.533   0.553   0.622   0.629   0.581   0.549   0.548   0.568   0.595   0.584   0.517   0.536   0.490   0.542   0.530   0.519   0.535   0.530   0.533   0.545   0.523   0.512   0.464   0.445   0.472   0.454   0.483   0.518   0.582   0.585   0.514   0.510   0.524
   163.75    0.515   0.512   0.557   0.592   0.635   0.620   0.622   0.531   0.551   0.566   0.594   0.559   0.544   0.511   0.514   0.554   0.539   0.488   0.506   0.538   0.540   0.520   0.531   0.467   0.456   0.436   0.465   0.496   0.515   0.509   0.529   0.542   0.538   0.507   0.553
   159.10    0.531   0.505   0.552   0.605   0.602   0.617   0.562   0.505   0.597   0.543   0.600   0.596   0.592   0.530   0.543   0.539   0.499   0.507   0.485   0.480   0.509   0.521   0.523   0.479   0.456   0.476   0.490   0.537   0.543   0.517   0.533   0.498   0.497   0.498   0.532
   154.45    0.530   0.527   0.588   0.624   0.628   0.613   0.564   0.585   0.575   0.587   0.634   0.648   0.582   0.605   0.523   0.535   0.523   0.500   0.521   0.489   0.531   0.551   0.514   0.519   0.515   0.489   0.500   0.518   0.560   0.563   0.521   0.500   0.490   0.450   0.518
   149.80    0.606   0.552   0.629   0.631   0.638   0.652   0.596   0.570   0.561   0.618   0.617   0.604   0.620   0.584   0.534   0.552   0.577   0.544   0.504   0.528   0.556   0.532   0.485   0.488   0.494   0.521   0.525   0.558   0.554   0.538   0.502   0.453   0.435   0.479   0.487
   145.15    0.594   0.578   0.575   0.634   0.647   0.660   0.627   0.591   0.572   0.626   0.641   0.619   0.620   0.552   0.542   0.592   0.582   0.577   0.532   0.514   0.552   0.536   0.497   0.510   0.480   0.516   0.552   0.546   0.529   0.519   0.496   0.425   0.414   0.449   0.457
   140.50    0.574   0.561   0.540   0.579   0.673   0.676   0.663   0.644   0.619   0.634   0.610   0.606   0.589   0.562   0.569   0.608   0.604   0.608   0.568   0.606   0.533   0.567   0.535   0.475   0.486   0.529   0.510   0.535   0.534   0.505   0.495   0.463   0.437   0.452   0.436
   135.85    0.598   0.572   0.627   0.621   0.658   0.741   0.699   0.649   0.645   0.646   0.662   0.619   0.601   0.591   0.631   0.612   0.617   0.561   0.586   0.574   0.570   0.543   0.538   0.494   0.522   0.529   0.512   0.505   0.503   0.497   0.515   0.480   0.440   0.416   0.420
   131.20    0.571   0.576   0.641   0.608   0.671   0.710   0.691   0.704   0.672   0.613   0.633   0.624   0.567   0.589   0.603   0.587   0.562   0.569   0.565   0.594   0.584   0.555   0.540   0.510   0.484   0.511   0.517   0.495   0.506   0.505   0.522   0.454   0.403   0.423   0.411
   126.55    0.642   0.627   0.613   0.611   0.618   0.667   0.693   0.688   0.651   0.626   0.652   0.656   0.552   0.523   0.532   0.560   0.546   0.554   0.582   0.603   0.602   0.523   0.526   0.476   0.454   0.487   0.504   0.510   0.524   0.512   0.551   0.475   0.469   0.473   0.407
   121.90    0.646   0.657   0.610   0.631   0.580   0.615   0.654   0.697   0.690   0.619   0.624   0.643   0.532   0.530   0.486   0.505   0.530   0.525   0.588   0.605   0.586   0.526   0.502   0.471   0.484   0.469   0.501   0.474   0.487   0.496   0.529   0.547   0.486   0.476   0.453
   117.25    0.699   0.674   0.636   0.640   0.646   0.622   0.627   0.676   0.665   0.625   0.648   0.596   0.568   0.544   0.489   0.482   0.527   0.534   0.597   0.642   0.601   0.558   0.528   0.504   0.525   0.481   0.506   0.486   0.490   0.518   0.509   0.521   0.466   0.473   0.490
   112.60    0.685   0.659   0.611   0.641   0.659   0.705   0.702   0.642   0.624   0.607   0.671   0.673   0.574   0.535   0.494   0.515   0.519   0.560   0.635   0.628   0.572   0.585   0.575   0.521   0.527   0.495   0.470   0.483   0.465   0.503   0.519   0.528   0.491   0.471   0.490
   107.95    0.688   0.693   0.650   0.636   0.658   0.683   0.692   0.653   0.629   0.643   0.670   0.650   0.587   0.549   0.518   0.521   0.527   0.545   0.585   0.578   0.551   0.529   0.574   0.574   0.563   0.545   0.493   0.504   0.462   0.509   0.515   0.534   0.533   0.509   0.489
   103.30    0.672   0.690   0.670   0.712   0.646   0.633   0.656   0.636   0.662   0.653   0.654   0.616   0.626   0.568   0.538   0.551   0.557   0.514   0.509   0.530   0.539   0.563   0.549   0.572   0.570   0.532   0.496   0.480   0.473   0.463   0.513   0.534   0.531   0.511   0.512
    98.65    0.704   0.654   0.658   0.688   0.662   0.669   0.641   0.646   0.638   0.639   0.637   0.642   0.617   0.562   0.534   0.586   0.529   0.523   0.494   0.504   0.493   0.528   0.594   0.549   0.558   0.578   0.581   0.560   0.536   0.572   0.547   0.552   0.545   0.522   0.518
    94.00    0.679   0.659   0.635   0.650   0.670   0.667   0.605   0.624   0.602   0.641   0.595   0.656   0.646   0.595   0.605   0.631   0.578   0.542   0.521   0.509   0.520   0.545   0.560   0.587   0.557   0.544   0.585   0.590   0.598   0.623   0.601   0.618   0.578   0.549   0.557
    89.35    0.616   0.632   0.628   0.617   0.605   0.656   0.629   0.645   0.649   0.682   0.644   0.641   0.637   0.607   0.585   0.622   0.620   0.587   0.581   0.548   0.545   0.540   0.536   0.588   0.550   0.566   0.547   0.589   0.546   0.581   0.615   0.640   0.622   0.566   0.586
    84.70    0.586   0.590   0.594   0.673   0.634   0.625   0.670   0.711   0.739   0.700   0.703   0.708   0.626   0.639   0.602   0.662   0.611   0.651   0.578   0.540   0.551   0.550   0.559   0.555   0.583   0.613   0.577   0.580   0.614   0.588   0.632   0.650   0.666   0.606   0.641
    80.05    0.593   0.594   0.626   0.661   0.698   0.653   0.698   0.724   0.749   0.721   0.692   0.696   0.650   0.674   0.676   0.699   0.713   0.677   0.641   0.636   0.576   0.594   0.593   0.634   0.611   0.608   0.628   0.644   0.592   0.600   0.647   0.639   0.655   0.639   0.624
    75.40    0.629   0.579   0.580   0.575   0.651   0.655   0.671   0.718   0.704   0.738   0.733   0.710   0.692   0.741   0.758   0.773   0.731   0.659   0.703   0.694   0.637   0.624   0.631   0.671   0.664   0.639   0.677   0.640   0.623   0.606   0.637   0.626   0.613   0.669   0.632
    70.75    0.652   0.596   0.591   0.586   0.672   0.654   0.679   0.703   0.730   0.719   0.748   0.779   0.748   0.761   0.756   0.767   0.693   0.683   0.668   0.642   0.621   0.567   0.587   0.600   0.652   0.669   0.675   0.718   0.619   0.663   0.671   0.638   0.621   0.627   0.651
    66.10    0.666   0.597   0.599   0.548   0.601   0.682   0.726   0.680   0.745   0.736   0.713   0.716   0.757   0.740   0.768   0.771   0.736   0.721   0.651   0.608   0.567   0.557   0.594   0.629   0.644   0.674   0.711   0.703   0.656   0.669   0.678   0.659   0.639   0.600   0.625
    61.45    0.620   0.639   0.591   0.557   0.628   0.678   0.688   0.686   0.708   0.726   0.724   0.729   0.749   0.729   0.753   0.755   0.709   0.708   0.694   0.677   0.627   0.634   0.703   0.707   0.738   0.709   0.721   0.666   0.655   0.662   0.641   0.650   0.607   0.596   0.586
    56.80    0.636   0.625   0.623   0.618   0.688   0.675   0.681   0.739   0.736   0.728   0.732   0.713   0.670   0.700   0.704   0.728   0.718   0.715   0.657   0.651   0.654   0.681   0.700   0.726   0.715   0.694   0.696   0.645   0.634   0.687   0.645   0.650   0.607   0.599   0.584
    52.15    0.645   0.661   0.652   0.661   0.698   0.745   0.680   0.746   0.759   0.709   0.707   0.705   0.718   0.652   0.677   0.704   0.704   0.693   0.666   0.638   0.648   0.669   0.704   0.714   0.658   0.670   0.672   0.614   0.665   0.656   0.657   0.676   0.662   0.622   0.599
    47.50    0.615   0.616   0.635   0.663   0.733   0.745   0.707   0.762   0.719   0.743   0.713   0.682   0.670   0.652   0.667   0.687   0.695   0.656   0.643   0.615   0.674   0.672   0.675   0.687   0.645   0.684   0.653   0.639   0.648   0.670   0.667   0.653   0.653   0.629   0.630
    42.85    0.651   0.652   0.668   0.720   0.721   0.694   0.730   0.718   0.735   0.679   0.653   0.699   0.661   0.687   0.669   0.662   0.640   0.673   0.638   0.664   0.636   0.688   0.658   0.635   0.649   0.639   0.684   0.674   0.630   0.662   0.677   0.685   0.718   0.644   0.629
    38.20    0.609   0.654   0.698   0.702   0.737   0.735   0.734   0.734   0.679   0.692   0.685   0.646   0.666   0.662   0.664   0.651   0.632   0.650   0.638   0.662   0.660   0.653   0.644   0.629   0.601   0.600   0.647   0.647   0.644   0.623   0.633   0.677   0.643   0.649   0.600
    33.55    0.644   0.607   0.676   0.662   0.732   0.715   0.696   0.664   0.627   0.632   0.645   0.655   0.616   0.617   0.651   0.648   0.689   0.632   0.688   0.643   0.620   0.576   0.619   0.561   0.604   0.605   0.641   0.668   0.628   0.602   0.554   0.624   0.665   0.630   0.600
    28.90    0.593   0.595   0.641   0.675   0.735   0.754   0.723   0.689   0.666   0.706   0.653   0.619   0.631   0.589   0.596   0.699   0.738   0.678   0.656   0.639   0.639   0.642   0.628   0.571   0.577   0.584   0.655   0.617   0.644   0.621   0.593   0.604   0.672   0.626   0.619
    24.25    0.566   0.567   0.628   0.595   0.667   0.735   0.723   0.724   0.683   0.714   0.674   0.692   0.640   0.615   0.645   0.674   0.710   0.687   0.684   0.701   0.705   0.618   0.640   0.590   0.583   0.595   0.639   0.659   0.672   0.667   0.613   0.626   0.658   0.644   0.646
    19.60    0.602   0.601   0.623   0.588   0.637   0.681   0.719   0.711   0.735   0.696   0.637   0.637   0.609   0.620   0.616   0.605   0.661   0.636   0.675   0.677   0.671   0.599   0.618   0.608   0.613   0.630   0.654   0.624   0.639   0.637   0.632   0.627   0.671   0.627   0.617
    14.95    0.612   0.659   0.667   0.646   0.653   0.662   0.687   0.707   0.689   0.651   0.664   0.643   0.601   0.570   0.560   0.612   0.641   0.619   0.642   0.673   0.640   0.638   0.580   0.573   0.595   0.622   0.650   0.638   0.632   0.661   0.587   0.605   0.641   0.648   0.580
    10.30    0.695   0.648   0.706   0.712   0.656   0.656   0.648   0.668   0.687   0.647   0.617   0.692   0.641   0.605   0.577   0.576   0.594   0.555   0.582   0.658   0.658   0.633   0.576   0.579   0.635   0.657   0.627   0.630   0.639   0.644   0.632   0.622   0.665   0.614   0.587
     5.65    0.699   0.663   0.689   0.695   0.663   0.646   0.641   0.585   0.636   0.657   0.670   0.683   0.692   0.665   0.620   0.589   0.560   0.577   0.628   0.634   0.650   0.613   0.588   0.613   0.633   0.643   0.620   0.645   0.698   0.680   0.633   0.668   0.666   0.608   0.608
     1.00    0.653   0.703   0.697   0.671   0.657   0.609   0.565   0.571   0.602   0.624   0.666   0.679   0.730   0.656   0.595   0.614   0.605   0.602   0.608   0.624   0.632   0.597   0.621   0.646   0.679   0.658   0.667   0.718   0.671   0.666   0.592   0.634   0.614   0.634   0.594

   Height   Standard deviation at grid points for the v component:
   168.40    0.384   0.371   0.374   0.373   0.376   0.384   0.371   0.366   0.380   0.397   0.398   0.399   0.385   0.398   0.387   0.372   0.381   0.365   0.370   0.351   0.374   0.365   0.366   0.358   0.356   0.347   0.345   0.345   0.340   0.331   0.359   0.350   0.355   0.354   0.333
   163.75    0.354   0.369   0.387   0.394   0.390   0.390   0.365   0.394   0.408   0.402   0.388   0.392   0.391   0.402   0.399   0.377   0.378   0.379   0.383   0.373   0.362   0.362   0.354   0.353   0.351   0.349   0.332   0.335   0.339   0.361   0.353   0.337   0.330   0.348   0.342
   159.10    0.373   0.383   0.392   0.400   0.380   0.396   0.387   0.406   0.408   0.412   0.415   0.394   0.377   0.393   0.407   0.388   0.386   0.384   0.381   0.376   0.364   0.355   0.360   0.367   0.365   0.341   0.337   0.351   0.339   0.373   0.342   0.348   0.340   0.339   0.348
   154.45    0.339   0.376   0.396   0.384   0.412   0.391   0.390   0.397   0.396   0.434   0.443   0.406   0.398   0.402   0.418   0.410   0.400   0.378   0.387   0.381   0.355   0.349   0.356   0.367   0.353   0.358   0.355   0.351   0.349   0.366   0.368   0.344   0.349   0.344   0.363
   149.80    0.367   0.359   0.395   0.386   0.391   0.379   0.382   0.373   0.369   0.418   0.429   0.405   0.407   0.404   0.408   0.401   0.386   0.367   0.372   0.360   0.339   0.345   0.347   0.368   0.378   0.364   0.367   0.359   0.359   0.364   0.358   0.364   0.362   0.355   0.358
   145.15    0.374   0.387   0.387   0.384   0.381   0.394   0.365   0.372   0.393   0.405   0.391   0.406   0.398   0.391   0.403   0.378   0.377   0.370   0.358   0.344   0.335   0.343   0.372   0.377   0.385   0.371   0.384   0.358   0.357   0.361   0.357   0.356   0.364   0.366   0.385
   140.50    0.392   0.375   0.384   0.373   0.383   0.386   0.373   0.388   0.376   0.380   0.387   0.392   0.379   0.367   0.372   0.357   0.360   0.380   0.363   0.344   0.333   0.348   0.383   0.377   0.374   0.385   0.392   0.370   0.359   0.358   0.373   0.388   0.367   0.361   0.379
   135.85    0.386   0.386   0.370   0.368   0.373   0.361   0.370   0.396   0.384   0.374   0.389   0.377   0.370   0.351   0.341   0.346   0.362   0.366   0.372   0.352   0.346   0.339   0.350   0.377   0.391   0.379   0.369   0.372   0.372   0.366   0.368   0.359   0.373   0.357   0.368
   131.20    0.373   0.365   0.372   0.380   0.353   0.354   0.363   0.379   0.373   0.368   0.357   0.349   0.361   0.354   0.344   0.346   0.357   0.375   0.350   0.344   0.358   0.366   0.371   0.381   0.382   0.371   0.364   0.382   0.357   0.355   0.369   0.362   0.349   0.365   0.358
   126.55    0.350   0.360   0.364   0.357   0.347   0.352   0.346   0.358   0.372   0.364   0.352   0.351   0.343   0.352   0.351   0.343   0.352   0.369   0.349   0.350   0.354   0.359   0.380   0.385   0.379   0.371   0.372   0.350   0.351   0.347   0.364   0.365   0.352   0.330   0.346
   121.90    0.348   0.363   0.362   0.358   0.341   0.344   0.351   0.337   0.348   0.351   0.348   0.329   0.311   0.336   0.337   0.311   0.335   0.348   0.352   0.365   0.363   0.375   0.389   0.377   0.372   0.357   0.357   0.346   0.347   0.353   0.357   0.336   0.340   0.337   0.352
   117.25    0.358   0.351   0.347   0.355   0.338   0.342   0.340   0.345   0.333   0.345   0.357   0.345   0.335   0.326   0.316   0.329   0.341   0.345   0.361   0.383   0.364   0.380   0.382   0.362   0.364   0.363   0.353   0.330   0.348   0.348   0.343   0.352   0.341   0.339   0.347
   112.60    0.357   0.366   0.359   0.361   0.350   0.331   0.339   0.331   0.345   0.342   0.359   0.347   0.323   0.348   0.338   0.341   0.356   0.359   0.359   0.396   0.361   0.365   0.365   0.353   0.351   0.353   0.368   0.361   0.351   0.351   0.337   0.339   0.333   0.335   0.343
   107.95    0.360   0.369   0.353   0.359   0.356   0.355   0.346   0.351   0.369   0.367   0.350   0.357   0.329   0.353   0.375   0.367   0.379   0.359   0.361   0.369   0.352   0.337   0.351   0.371   0.377   0.342   0.341   0.348   0.342   0.356   0.362   0.359   0.338   0.349   0.338
   103.30    0.349   0.350   0.338   0.363   0.349   0.363   0.352   0.354   0.346   0.366   0.356   0.343   0.341   0.363   0.382   0.364   0.380   0.360   0.349   0.365   0.363   0.346   0.355   0.361   0.362   0.357   0.362   0.380   0.365   0.348   0.368   0.380   0.349   0.340   0.322
    98.65    0.363   0.351   0.375   0.373   0.357   0.366   0.351   0.351   0.370   0.348   0.348   0.348   0.360   0.362   0.381   0.399   0.395   0.355   0.355   0.357   0.373   0.361   0.358   0.367   0.371   0.368   0.369   0.375   0.375   0.342   0.353   0.363   0.332   0.335   0.338
    94.00    0.372   0.368   0.400   0.381   0.363   0.356   0.344   0.357   0.361   0.352   0.358   0.346   0.365   0.388   0.399   0.389   0.383   0.370   0.362   0.351   0.360   0.350   0.356   0.359   0.357   0.369   0.357   0.350   0.358   0.346   0.334   0.342   0.333   0.335   0.345
    89.35    0.393   0.385   0.379   0.368   0.381   0.348   0.355   0.367   0.378   0.357   0.358   0.369   0.382   0.386   0.403   0.392   0.375   0.352   0.362   0.353   0.370   0.340   0.331   0.351   0.343   0.364   0.369   0.376   0.371   0.357   0.356   0.360   0.340   0.348   0.380
    84.70    0.400   0.395   0.370   0.369   0.376   0.354   0.365   0.369   0.354   0.343   0.340   0.370   0.358   0.377   0.416   0.401   0.380   0.376   0.353   0.342   0.361   0.359   0.350   0.346   0.360   0.341   0.349   0.347   0.365   0.340   0.342   0.356   0.361   0.377   0.372
    80.05    0.393   0.380   0.371   0.369   0.362   0.382   0.365   0.365   0.376   0.360   0.354   0.355   0.373   0.393   0.409   0.381   0.377   0.374   0.350   0.360   0.347   0.340   0.344   0.342   0.349   0.355   0.364   0.348   0.341   0.343   0.330   0.344   0.361   0.375   0.349
    75.40    0.379   0.365   0.360   0.371   0.376   0.398   0.377   0.384   0.368   0.382   0.370   0.365   0.371   0.367   0.378   0.371   0.374   0.363   0.369   0.400   0.367   0.364   0.341   0.331   0.347   0.371   0.379   0.377   0.343   0.341   0.342   0.346   0.354   0.366   0.354
    70.75    0.373   0.377   0.368   0.378   0.384   0.391   0.379   0.374   0.366   0.379   0.369   0.351   0.369   0.374   0.386   0.371   0.379   0.397   0.379   0.392   0.393   0.353   0.361   0.347   0.342   0.377   0.386   0.355   0.343   0.333   0.341   0.335   0.344   0.361   0.360
    66.10    0.357   0.369   0.361   0.367   0.382   0.388   0.381   0.375   0.369   0.379   0.374   0.360   0.356   0.377   0.364   0.368   0.374   0.374   0.368   0.379   0.376   0.368   0.370   0.344   0.362   0.368   0.358   0.354   0.311   0.341   0.346   0.349   0.349   0.360   0.334
    61.45    0.356   0.358   0.368   0.376   0.376   0.394   0.372   0.366   0.363   0.371   0.332   0.347   0.356   0.373   0.351   0.365   0.364   0.355   0.373   0.367   0.370   0.364   0.374   0.367   0.369   0.339   0.350   0.335   0.336   0.344   0.355   0.329   0.339   0.338   0.322
    56.80    0.369   0.369   0.368   0.386   0.379   0.386   0.377   0.367   0.377   0.357   0.344   0.333   0.342   0.355   0.368   0.367   0.365   0.331   0.351   0.360   0.353   0.369   0.376   0.365   0.371   0.341   0.335   0.339   0.335   0.342   0.334   0.333   0.335   0.321   0.351
    52.15    0.366   0.363   0.377   0.380   0.383   0.379   0.380   0.365   0.355   0.342   0.338   0.341   0.330   0.342   0.354   0.353   0.353   0.341   0.342   0.357   0.367   0.368   0.354   0.345   0.356   0.343   0.353   0.337   0.327   0.324   0.313   0.327   0.313   0.323   0.337
    47.50    0.359   0.370   0.377   0.385   0.375   0.366   0.359   0.354   0.354   0.355   0.362   0.361   0.345   0.337   0.353   0.352   0.353   0.344   0.345   0.339   0.343   0.347   0.350   0.349   0.350   0.354   0.352   0.351   0.370   0.347   0.345   0.337   0.341   0.328   0.345
    42.85    0.369   0.358   0.361   0.375   0.371   0.380   0.396   0.357   0.372   0.372   0.357   0.354   0.348   0.351   0.357   0.348   0.327   0.328   0.339   0.331   0.350   0.353   0.349   0.335   0.336   0.343   0.345   0.344   0.356   0.367   0.369   0.365   0.351   0.340   0.345
    38.20    0.369   0.349   0.362   0.367   0.361   0.381   0.380   0.383   0.368   0.352   0.342   0.353   0.344   0.344   0.357   0.344   0.332   0.346   0.357   0.344   0.333   0.343   0.361   0.350   0.353   0.354   0.342   0.355   0.367   0.367   0.366   0.374   0.374   0.367   0.362
    33.55    0.352   0.346   0.359   0.356   0.361   0.377   0.375   0.376   0.356   0.342   0.327   0.341   0.336   0.351   0.337   0.341   0.343   0.345   0.346   0.361   0.339   0.348   0.352   0.348   0.353   0.346   0.352   0.368   0.368   0.378   0.356   0.359   0.363   0.367   0.375
    28.90    0.336   0.340   0.358   0.359   0.353   0.347   0.360   0.360   0.350   0.347   0.354   0.353   0.353   0.358   0.357   0.355   0.330   0.355   0.354   0.338   0.355   0.361   0.350   0.348   0.347   0.360   0.382   0.378   0.386   0.408   0.379   0.356   0.369   0.358   0.364
    24.25    0.347   0.341   0.364   0.360   0.347   0.343   0.345   0.359   0.364   0.356   0.346   0.358   0.374   0.356   0.364   0.357   0.336   0.324   0.341   0.343   0.348   0.351   0.355   0.358   0.377   0.372   0.378   0.395   0.390   0.403   0.375   0.371   0.355   0.373   0.376
    19.60    0.355   0.374   0.368   0.371   0.363   0.364   0.379   0.374   0.380   0.353   0.345   0.351   0.361   0.366   0.356   0.369   0.336   0.327   0.355   0.363   0.374   0.342   0.363   0.365   0.367   0.353   0.377   0.391   0.384   0.373   0.377   0.381   0.386   0.370   0.377
    14.95    0.362   0.381   0.369   0.379   0.381   0.389   0.391   0.404   0.379   0.365   0.333   0.341   0.355   0.350   0.357   0.381   0.366   0.342   0.355   0.352   0.358   0.357   0.376   0.346   0.359   0.347   0.351   0.364   0.381   0.377   0.401   0.414   0.408   0.388   0.381
    10.30    0.387   0.382   0.381   0.378   0.368   0.387   0.380   0.395   0.391   0.365   0.358   0.331   0.347   0.355   0.349   0.355   0.360   0.345   0.343   0.349   0.365   0.372   0.360   0.339   0.354   0.365   0.378   0.381   0.388   0.389   0.410   0.392   0.409   0.387   0.400
     5.65    0.375   0.389   0.394   0.386   0.373   0.400   0.382   0.385   0.388   0.382   0.373   0.341   0.343   0.350   0.366   0.356   0.352   0.347   0.344   0.346   0.367   0.367   0.358   0.339   0.359   0.364   0.368   0.388   0.404   0.397   0.406   0.394   0.393   0.385   0.384
     1.00    0.374   0.387   0.391   0.387   0.394   0.394   0.371   0.372   0.373   0.375   0.386   0.357   0.353   0.342   0.356   0.350   0.334   0.339   0.358   0.360   0.366   0.367   0.371   0.369   0.365   0.358   0.387   0.384   0.400   0.389   0.386   0.389   0.382   0.393   0.374

   Height   Standard deviation at grid points for the w component:
   168.40    0.250   0.242   0.241   0.242   0.234   0.229   0.224   0.236   0.236   0.247   0.250   0.253   0.257   0.254   0.252   0.252   0.243   0.238   0.243   0.237   0.230   0.231   0.233   0.245   0.237   0.227   0.224   0.223   0.228   0.231   0.230   0.233   0.232   0.225   0.231
   163.75    0.242   0.248   0.250   0.243   0.240   0.238   0.232   0.245   0.241   0.248   0.249   0.248   0.257   0.257   0.253   0.256   0.246   0.251   0.249   0.253   0.249   0.245   0.241   0.249   0.246   0.234   0.227   0.233   0.226   0.228   0.236   0.235   0.237   0.246   0.235
   159.10    0.240   0.240   0.251   0.252   0.238   0.238   0.234   0.252   0.254   0.248   0.246   0.238   0.242   0.255   0.252   0.255   0.240   0.248   0.250   0.251   0.253   0.244   0.248   0.245   0.244   0.235   0.234   0.230   0.231   0.234   0.236   0.237   0.235   0.239   0.244
   154.45    0.237   0.236   0.244   0.239   0.241   0.236   0.236   0.243   0.248   0.251   0.239   0.249   0.242   0.251   0.250   0.258   0.249   0.247   0.250   0.244   0.251   0.250   0.249   0.246   0.234   0.230   0.232   0.231   0.235   0.234   0.243   0.240   0.240   0.240   0.243
   149.80    0.227   0.226   0.229   0.231   0.237   0.235   0.237   0.242   0.252   0.240   0.238   0.246   0.250   0.250   0.254   0.248   0.245   0.250   0.245   0.238   0.245   0.252   0.246   0.246   0.241   0.241   0.235   0.238   0.232   0.242   0.245   0.247   0.237   0.241   0.230
   145.15    0.227   0.223   0.233   0.234   0.243   0.230   0.230   0.228   0.236   0.243   0.237   0.251   0.258   0.248   0.258   0.253   0.246   0.252   0.243   0.246   0.230   0.243   0.252   0.244   0.251   0.241   0.239   0.229   0.230   0.235   0.253   0.255   0.241   0.248   0.247
   140.50    0.225   0.221   0.226   0.239   0.241   0.230   0.227   0.221   0.227   0.233   0.237   0.239   0.249   0.247   0.250   0.252   0.245   0.240   0.246   0.242   0.231   0.236   0.236   0.239   0.248   0.248   0.231   0.236   0.231   0.234   0.246   0.245   0.245   0.249   0.253
   135.85    0.222   0.227   0.233   0.232   0.232   0.223   0.228   0.219   0.220   0.223   0.229   0.237   0.237   0.232   0.243   0.242   0.253   0.234   0.245   0.250   0.240   0.233   0.238   0.244   0.244   0.244   0.241   0.235   0.247   0.244   0.238   0.245   0.248   0.252   0.245
   131.20    0.227   0.236   0.236   0.224   0.233   0.232   0.226   0.217   0.223   0.234   0.235   0.245   0.250   0.236   0.239   0.243   0.250   0.245   0.241   0.242   0.236   0.237   0.235   0.243   0.253   0.245   0.243   0.248   0.261   0.253   0.249   0.245   0.254   0.243   0.244
   126.55    0.236   0.235   0.229   0.229   0.232   0.228   0.225   0.229   0.217   0.225   0.235   0.237   0.248   0.250   0.244   0.241   0.247   0.243   0.237   0.237   0.242   0.244   0.244   0.250   0.251   0.250   0.255   0.261   0.259   0.250   0.252   0.245   0.257   0.253   0.238
   121.90    0.239   0.233   0.230   0.225   0.224   0.221   0.223   0.225   0.225   0.235   0.232   0.240   0.244   0.239   0.248   0.244   0.245   0.241   0.236   0.245   0.241   0.253   0.253   0.256   0.265   0.253   0.255   0.259   0.259   0.252   0.250   0.257   0.256   0.250   0.249
   117.25    0.235   0.235   0.224   0.220   0.233   0.236   0.229   0.225   0.225   0.234   0.240   0.241   0.234   0.237   0.233   0.248   0.245   0.251   0.241   0.249   0.240   0.241   0.251   0.256   0.257   0.261   0.259   0.265   0.266   0.264   0.256   0.256   0.261   0.252   0.248
   112.60    0.236   0.237   0.232   0.235   0.241   0.243   0.232   0.239   0.237   0.245   0.238   0.235   0.238   0.234   0.236   0.238   0.241   0.248   0.242   0.237   0.236   0.243   0.242   0.243   0.240   0.247   0.247   0.262   0.259   0.264   0.251   0.258   0.256   0.259   0.264
   107.95    0.235   0.236   0.241   0.247   0.249   0.237   0.241   0.240   0.249   0.239   0.240   0.233   0.230   0.240   0.232   0.237   0.241   0.246   0.242   0.231   0.238   0.235   0.243   0.237   0.240   0.224   0.241   0.242   0.257   0.259   0.254   0.250   0.251   0.262   0.264
   103.30    0.230   0.234   0.247   0.249   0.248   0.240   0.247   0.242   0.243   0.239   0.235   0.230   0.224   0.240   0.235   0.241   0.246   0.247   0.236   0.232   0.243   0.249   0.241   0.232   0.236   0.241   0.244   0.245   0.242   0.241   0.249   0.258   0.255   0.258   0.256
    98.65    0.239   0.235   0.240   0.250   0.252   0.239   0.244   0.246   0.240   0.230   0.232   0.232   0.228   0.245   0.241   0.237   0.237   0.236   0.236   0.237   0.246   0.241   0.244   0.247   0.245   0.246   0.248   0.252   0.239   0.243   0.252   0.252   0.262   0.257   0.252
    94.00    0.244   0.256   0.253   0.250   0.244   0.235   0.244   0.251   0.236   0.234   0.229   0.233   0.242   0.239   0.241   0.230   0.238   0.242   0.239   0.245   0.246   0.242   0.251   0.252   0.248   0.246   0.257   0.256   0.251   0.248   0.247   0.244   0.252   0.249   0.243
    89.35    0.253   0.253   0.253   0.257   0.244   0.227   0.239   0.244   0.242   0.245   0.236   0.236   0.253   0.251   0.247   0.236   0.247   0.239   0.239   0.241   0.253   0.244   0.243   0.252   0.253   0.253   0.250   0.248   0.255   0.263   0.257   0.249   0.243   0.246   0.247
    84.70    0.245   0.237   0.237   0.248   0.245   0.240   0.242   0.237   0.242   0.242   0.242   0.240   0.248   0.247   0.233   0.231   0.238   0.232   0.234   0.248   0.255   0.245   0.239   0.250   0.249   0.244   0.242   0.250   0.263   0.268   0.247   0.235   0.230   0.236   0.247
    80.05    0.238   0.240   0.240   0.243   0.253   0.247   0.241   0.241   0.239   0.245   0.234   0.240   0.240   0.237   0.230   0.239   0.240   0.227   0.236   0.237   0.243   0.232   0.239   0.246   0.252   0.240   0.253   0.249   0.250   0.264   0.238   0.233   0.228   0.236   0.237
    75.40    0.248   0.241   0.242   0.238   0.248   0.250   0.244   0.238   0.237   0.236   0.231   0.242   0.236   0.244   0.241   0.244   0.233   0.230   0.231   0.235   0.236   0.246   0.240   0.241   0.242   0.247   0.248   0.251   0.254   0.253   0.241   0.247   0.243   0.245   0.237
    70.75    0.248   0.238   0.248   0.244   0.249   0.247   0.242   0.236   0.232   0.237   0.228   0.229   0.233   0.244   0.239   0.237   0.234   0.232   0.241   0.232   0.237   0.241   0.240   0.249   0.250   0.243   0.246   0.236   0.245   0.257   0.251   0.250   0.244   0.250   0.242
    66.10    0.243   0.252   0.245   0.252   0.253   0.238   0.233   0.236   0.237   0.242   0.224   0.219   0.233   0.229   0.233   0.232   0.233   0.233   0.234   0.239   0.229   0.241   0.234   0.239   0.247   0.244   0.233   0.237   0.227   0.239   0.251   0.244   0.251   0.245   0.246
    61.45    0.240   0.247   0.248   0.255   0.254   0.240   0.237   0.233   0.234   0.240   0.229   0.224   0.237   0.238   0.225   0.231   0.228   0.235   0.238   0.238   0.234   0.238   0.239   0.237   0.236   0.230   0.237   0.233   0.226   0.235   0.235   0.252   0.252   0.245   0.243
    56.80    0.245   0.244   0.247   0.253   0.245   0.245   0.236   0.229   0.234   0.225   0.238   0.227   0.231   0.227   0.227   0.232   0.238   0.241   0.234   0.228   0.233   0.234   0.229   0.229   0.234   0.229   0.227   0.229   0.229   0.227   0.231   0.225   0.236   0.236   0.239
    52.15    0.252   0.251   0.246   0.251   0.245   0.244   0.238   0.235   0.231   0.239   0.228   0.232   0.226   0.234   0.237   0.235   0.241   0.238   0.230   0.231   0.225   0.228   0.232   0.229   0.231   0.232   0.233   0.230   0.232   0.222   0.225   0.229   0.231   0.239   0.247
    47.50    0.249   0.255   0.244   0.247   0.253   0.242   0.248   0.237   0.233   0.243   0.238   0.231   0.235   0.234   0.242   0.242   0.236   0.242   0.238   0.226   0.232   0.226   0.228   0.226   0.230   0.228   0.229   0.230   0.230   0.229   0.228   0.232   0.234   0.241   0.247
    42.85    0.240   0.250   0.249   0.250   0.256   0.242   0.238   0.240   0.230   0.245   0.236   0.237   0.230   0.246   0.238   0.243   0.235   0.235   0.241   0.232   0.229   0.228   0.231   0.230   0.222   0.221   0.223   0.230   0.230   0.224   0.238   0.230   0.240   0.242   0.247
    38.20    0.243   0.241   0.240   0.242   0.245   0.246   0.238   0.239   0.242   0.248   0.238   0.230   0.241   0.243   0.248   0.244   0.231   0.236   0.241   0.232   0.235   0.240   0.238   0.233   0.227   0.227   0.229   0.226   0.230   0.232   0.227   0.231   0.235   0.245   0.253
    33.55    0.238   0.237   0.240   0.245   0.240   0.239   0.227   0.236   0.248   0.245   0.242   0.247   0.247   0.249   0.242   0.238   0.229   0.232   0.238   0.237   0.240   0.235   0.238   0.230   0.230   0.233   0.226   0.228   0.234   0.231   0.238   0.241   0.246   0.250   0.256
    28.90    0.250   0.249   0.255   0.243   0.237   0.234   0.232   0.242   0.244   0.252   0.245   0.239   0.245   0.252   0.237   0.225   0.235   0.232   0.242   0.244   0.241   0.243   0.241   0.238   0.239   0.232   0.229   0.229   0.225   0.228   0.239   0.234   0.246   0.256   0.250
    24.25    0.243   0.257   0.248   0.253   0.247   0.236   0.246   0.247   0.239   0.248   0.238   0.241   0.240   0.240   0.241   0.236   0.233   0.232   0.232   0.234   0.237   0.240   0.242   0.238   0.228   0.239   0.224   0.235   0.236   0.232   0.240   0.238   0.244   0.250   0.247
    19.60    0.245   0.245   0.240   0.238   0.244   0.246   0.251   0.232   0.241   0.247   0.238   0.239   0.238   0.249   0.253   0.248   0.243   0.243   0.232   0.231   0.237   0.230   0.238   0.232   0.234   0.230   0.218   0.233   0.236   0.239   0.247   0.249   0.246   0.246   0.244
    14.95    0.248   0.240   0.239   0.241   0.239   0.242   0.243   0.239   0.239   0.239   0.243   0.239   0.238   0.251   0.254   0.241   0.238   0.235   0.238   0.238   0.245   0.246   0.241   0.238   0.236   0.229   0.225   0.235   0.242   0.247   0.254   0.245   0.245   0.248   0.252
    10.30    0.241   0.246   0.250   0.242   0.237   0.239   0.241   0.241   0.242   0.246   0.238   0.236   0.241   0.240   0.246   0.247   0.242   0.235   0.237   0.237   0.246   0.243   0.238   0.240   0.231   0.236   0.238   0.234   0.237   0.247   0.250   0.242   0.240   0.252   0.257
     5.65    0.248   0.249   0.246   0.245   0.244   0.240   0.239   0.238   0.240   0.240   0.230   0.228   0.239   0.243   0.251   0.232   0.236   0.233   0.236   0.236   0.244   0.241   0.237   0.244   0.235   0.241   0.242   0.237   0.235   0.234   0.235   0.240   0.246   0.244   0.252
     1.00    0.242   0.249   0.252   0.250   0.245   0.243   0.242   0.243   0.232   0.234   0.239   0.240   0.240   0.239   0.243   0.242   0.235   0.238   0.238   0.240   0.241   0.237   0.240   0.246   0.242   0.240   0.239   0.223   0.235   0.240   0.235   0.244   0.244   0.249   0.248

   Mean standard deviation across all grid points:
      u component:    0.610 m/s
      v component:    0.363 m/s
      w component:    0.241 m/s


U-component (X) statistics from the interpolated hub point:

   Mean =   9.9913 m/s
   TI   =   5.8702 %


Processing complete.  5786.6 CPU seconds used.
