
This summary file was generated by TurbSim (from OpenFAST-v3.5.3) on 20-Apr-2025 at 10:56:45.


Runtime Options:

-228636811  Random seed #1
    RANLUX  Type of random number generator
         F  Output binary HH turbulence parameters?
         F  Output formatted turbulence parameters?
         F  Output AeroDyn HH files?
         T  Output AeroDyn FF files?
         F  Output BLADED FF files?
         F  Output tower data?
         F  Output HAWC FF files?
         F  Output formatted FF files?
         T  Output coherent turbulence time step file?
 0 -  NONE  IEC turbulence models scaled to exact specified standard deviation


Turbine/Model Specifications:

        37  Vertical grid-point matrix dimension
        35  Horizontal grid-point matrix dimension
     0.250  Time step [seconds]
   900.000  Analysis time [seconds]
   900.000  Usable output time [seconds]
    89.350  Hub height [m]
   167.400  Grid height [m]
   158.100  Grid width [m]
     0.000  Vertical flow angle [degrees]
     0.000  Horizontal flow angle [degrees]


Meteorological Boundary Conditions:

    TIMESR  User-input time series spectral model
       N/A  IEC standard
       N/A  IEC turbulence characteristic
       N/A  IEC turbulence type
       N/A  IEC Extreme Turbulence Model (ETM) "c" parameter [m/s]
       PL   Wind profile type
    90.000  Reference height [m]
    10.000  Reference wind speed [m/s]
       N/A  Jet height [m]
     0.120  Power law exponent
     0.030  Surface roughness length [m]


Non-IEC Meteorological Boundary Conditions:

    45.000  Site latitude [degrees]
     0.050  Gradient Richardson number
     0.480  Friction or shear velocity [m/s]
       N/A  Mixing layer depth [m]
       N/A  Mean hub u'w' Reynolds stress
       N/A  Mean hub u'v' Reynolds stress
       N/A  Mean hub v'w' Reynolds stress


Spatial Coherence Models:

       IEC  u-component coherence model
       IEC  v-component coherence model
       IEC  w-component coherence model
(   12.000, 0.353E-03)  u-component coherence parameters
(   12.000, 0.353E-03)  v-component coherence parameters
(   12.000, 0.353E-03)  w-component coherence parameters
       N/A  Coherence exponent


Coherent Turbulence Scaling Parameters:

.\EventData
            Name of the path containing the coherent turbulence data files
       les  Type of coherent turbulence data files
     1.000  Disturbance scale (ratio of wave height to rotor diameter)
     0.500  Fractional location of tower centerline from right
     0.500  Fractional location of hub height from the bottom of the dataset
    30.000  Minimum start time for coherent structures [seconds]


Profiles from User-Defined Time-Series Input:

  Height   Wind Speed   Horizontal Angle   Vertical Angle
   (m)        (m/s)          (deg)              (deg)    
  ------   ----------   ----------------   --------------
   94.00      10.00          -0.63                0.00


You have requested that the following file(s) be generated:

   /kfs3/scratch/agupta/Projects/RL_Incubator/FinalRuns_Veer/Seed4/./FFSim_Seed4/Cond00_v10.0_PL0.12_TI7.5/Case3_wdirp06/Seed_1/TurbSim/HighT12.bts (AeroDyn/TurbSim full-field wind file)


Turbulence Simulation Scaling Parameter Summary:

   Turbulence model used                            =  User-input time series
   Gradient Richardson number                       =    0.050
   Monin-Obukhov (M-O) z/L parameter                =    0.067
   Monin-Obukhov (M-O) length scale                 = 1340.250 m
   Mean wind speed at hub height                    =    9.991 m/s

   Wind profile type                                =  Power law
   Power law exponent                               =    0.120
   Mean shear across rotor disk                     =    0.019 (m/s)/m
   Assumed rotor diameter                           =  158.100 m
   Surface roughness length                         =    0.030 m

   Nyquist frequency of turbulent wind field        =    2.000 Hz

   Number of time steps in the FFT                  =     3600
   Number of time steps output                      =     3600
   Number of points simulated                       =     1296


Mean Flow Angles:

   Vertical   =   0.0 degrees
   Horizontal =   0.0 degrees

Mean Wind Speed Profile:

   Height    Wind Speed   Horizontal Angle  Vertical Angle  U-comp (X)   V-comp (Y)   W-comp (Z)
     (m)        (m/s)         (degrees)       (degrees)       (m/s)        (m/s)        (m/s)   
   ------    ----------   ----------------  --------------  ----------   ----------   ----------
    168.4       10.78            0.00            0.00         10.78         0.00         0.00
    163.7       10.74            0.00            0.00         10.74         0.00         0.00
    159.1       10.71            0.00            0.00         10.71         0.00         0.00
    154.4       10.67            0.00            0.00         10.67         0.00         0.00
    149.8       10.63            0.00            0.00         10.63         0.00         0.00
    145.1       10.59            0.00            0.00         10.59         0.00         0.00
    140.5       10.55            0.00            0.00         10.55         0.00         0.00
    135.8       10.51            0.00            0.00         10.51         0.00         0.00
    131.2       10.46            0.00            0.00         10.46         0.00         0.00
    126.5       10.42            0.00            0.00         10.42         0.00         0.00
    121.9       10.37            0.00            0.00         10.37         0.00         0.00
    117.2       10.32            0.00            0.00         10.32         0.00         0.00
    112.6       10.27            0.00            0.00         10.27         0.00         0.00
    107.9       10.22            0.00            0.00         10.22         0.00         0.00
    103.3       10.17            0.00            0.00         10.17         0.00         0.00
     98.6       10.11            0.00            0.00         10.11         0.00         0.00
     94.0       10.05            0.00            0.00         10.05         0.00         0.00
     89.3        9.99            0.00            0.00          9.99         0.00         0.00
     84.7        9.93            0.00            0.00          9.93         0.00         0.00
     80.0        9.86            0.00            0.00          9.86         0.00         0.00
     75.4        9.79            0.00            0.00          9.79         0.00         0.00
     70.7        9.72            0.00            0.00          9.72         0.00         0.00
     66.1        9.64            0.00            0.00          9.64         0.00         0.00
     61.4        9.55            0.00            0.00          9.55         0.00         0.00
     56.8        9.46            0.00            0.00          9.46         0.00         0.00
     52.1        9.37            0.00            0.00          9.37         0.00         0.00
     47.5        9.26            0.00            0.00          9.26         0.00         0.00
     42.8        9.15            0.00            0.00          9.15         0.00         0.00
     38.2        9.02            0.00            0.00          9.02         0.00         0.00
     33.5        8.88            0.00            0.00          8.88         0.00         0.00
     28.9        8.73            0.00            0.00          8.73         0.00         0.00
     24.2        8.54            0.00            0.00          8.54         0.00         0.00
     19.6        8.33            0.00            0.00          8.33         0.00         0.00
     14.9        8.06            0.00            0.00          8.06         0.00         0.00
     10.3        7.71            0.00            0.00          7.71         0.00         0.00
      5.6        7.17            0.00            0.00          7.17         0.00         0.00
      1.0        5.83            0.00            0.00          5.83         0.00         0.00


Harvested Random Seeds after Generation of the Random Numbers:

     65026800 K 1
            0 K 2


Hub-Height Simulated Turbulence Statistical Summary:

   Type of Wind        Min (m/s)   Mean (m/s)    Max (m/s)  Sigma (m/s)       TI (%)
   ----------------    ---------   ----------    ---------  -----------       ------
   Longitudinal (u)         7.88         9.99        12.21        0.781        7.814
   Lateral (v)             -1.72         0.00         1.50        0.487        4.879
   Vertical (w)            -1.28        -0.00         1.19        0.364        3.647
   U component              7.88         9.99        12.21        0.781        7.814
   V component             -1.72         0.00         1.50        0.487        4.879
   W component             -1.28        -0.00         1.19        0.364        3.647
   Horizontal (U&V)         7.90        10.00        12.22        0.781        7.804
   Total                    7.91        10.01        12.22        0.781        7.799

                       Min Reynolds     Mean Reynolds    Max Reynolds    Correlation
   Product             Stress (m/s)^2   Stress (m/s)^2   Stress (m/s)^2  Coefficient
   ----------------    --------------   --------------   --------------  -----------
   u'w'                     -1.451             0.005             1.366         0.018
   u'v'                     -2.417             0.071             2.525         0.186
   v'w'                     -1.102             0.006             1.381         0.035


   Friction Velocity (Ustar)  =      0.071 m/s
   Maximum Instantaneous TKE  =      2.787 (m/s)^2
   Maximum Instantaneous CTKE =      1.326 (m/s)^2


Grid Point Variance Summary:

   Y-coord  -79.05  -74.40  -69.75  -65.10  -60.45  -55.80  -51.15  -46.50  -41.85  -37.20  -32.55  -27.90  -23.25  -18.60  -13.95   -9.30   -4.65    0.00    4.65    9.30   13.95   18.60   23.25   27.90   32.55   37.20   41.85   46.50   51.15   55.80   60.45   65.10   69.75   74.40   79.05

   Height   Standard deviation at grid points for the u component:
   168.40    0.779   0.759   0.752   0.752   0.774   0.799   0.832   0.828   0.862   0.913   0.940   0.916   0.909   0.886   0.967   0.947   0.858   0.852   0.880   0.988   0.972   0.937   0.936   0.951   1.000   1.034   1.094   1.098   1.122   1.045   1.034   0.986   0.959   0.957   0.976
   163.75    0.810   0.793   0.736   0.744   0.830   0.876   0.886   0.889   0.843   0.837   0.918   0.899   0.919   0.926   0.905   0.880   0.910   0.852   0.918   0.965   0.964   0.942   0.974   0.957   0.985   1.003   1.038   1.056   1.066   1.016   1.001   0.998   0.956   0.920   0.977
   159.10    0.790   0.751   0.772   0.783   0.821   0.904   0.923   0.893   0.852   0.846   0.877   0.895   0.850   0.870   0.896   0.872   0.855   0.867   0.878   0.922   0.846   0.915   0.909   0.974   0.933   0.957   0.963   0.971   1.030   0.984   0.942   0.931   0.927   0.939   0.953
   154.45    0.817   0.816   0.806   0.788   0.836   0.840   0.904   0.921   0.913   0.897   0.891   0.943   0.879   0.834   0.838   0.769   0.743   0.814   0.821   0.842   0.889   0.876   0.913   0.935   0.946   0.945   0.924   0.980   0.959   0.971   0.990   0.991   0.974   0.946   0.948
   149.80    0.825   0.791   0.746   0.715   0.735   0.811   0.875   0.833   0.864   0.932   0.908   0.944   0.886   0.782   0.780   0.802   0.773   0.844   0.862   0.803   0.858   0.837   0.880   0.946   1.018   0.968   0.924   0.993   0.885   0.923   0.960   0.985   1.002   0.950   0.937
   145.15    0.783   0.788   0.717   0.731   0.765   0.795   0.777   0.816   0.847   0.864   0.894   0.861   0.830   0.763   0.781   0.819   0.791   0.805   0.798   0.792   0.838   0.898   0.994   1.016   1.035   1.012   0.965   0.960   0.884   0.876   0.970   1.033   0.979   0.977   0.964
   140.50    0.728   0.753   0.704   0.747   0.755   0.735   0.782   0.778   0.844   0.855   0.819   0.769   0.781   0.753   0.806   0.751   0.780   0.804   0.841   0.860   0.904   0.951   0.979   1.044   1.037   1.021   1.004   1.004   0.950   0.939   0.982   0.945   0.987   0.924   0.954
   135.85    0.762   0.790   0.801   0.757   0.734   0.791   0.766   0.726   0.751   0.821   0.826   0.753   0.741   0.809   0.800   0.783   0.813   0.861   0.846   0.844   0.828   0.957   0.962   1.036   1.035   1.116   1.074   1.056   1.047   0.966   0.978   1.003   0.985   0.947   0.980
   131.20    0.796   0.839   0.834   0.827   0.794   0.754   0.783   0.757   0.659   0.761   0.740   0.737   0.752   0.815   0.782   0.781   0.824   0.782   0.841   0.908   0.916   0.955   1.010   1.064   1.044   1.123   1.100   1.116   1.056   1.048   1.055   1.084   0.990   0.932   0.970
   126.55    0.845   0.842   0.868   0.808   0.833   0.839   0.760   0.734   0.703   0.728   0.712   0.723   0.730   0.740   0.750   0.719   0.771   0.804   0.835   0.938   0.989   1.020   0.967   1.004   1.048   1.102   1.110   1.074   1.127   1.111   1.119   1.042   1.009   0.971   0.952
   121.90    0.800   0.838   0.822   0.791   0.814   0.772   0.727   0.708   0.695   0.696   0.693   0.694   0.683   0.716   0.710   0.761   0.829   0.815   0.854   0.919   0.948   1.018   0.998   1.012   1.042   1.146   1.169   1.159   1.126   1.098   1.066   1.060   0.979   0.980   0.969
   117.25    0.774   0.787   0.779   0.721   0.713   0.752   0.723   0.691   0.674   0.653   0.661   0.697   0.675   0.752   0.754   0.761   0.814   0.853   0.846   0.819   0.922   0.994   0.987   1.033   1.059   1.113   1.147   1.067   1.061   1.066   1.090   1.078   1.033   1.057   1.011
   112.60    0.760   0.741   0.712   0.694   0.732   0.703   0.689   0.674   0.725   0.679   0.644   0.632   0.681   0.679   0.694   0.716   0.728   0.760   0.827   0.878   0.929   0.995   0.951   1.021   1.015   1.063   1.087   1.098   1.093   1.035   1.019   1.100   1.035   1.057   0.952
   107.95    0.782   0.729   0.724   0.652   0.659   0.691   0.704   0.740   0.746   0.737   0.716   0.710   0.677   0.669   0.678   0.674   0.740   0.768   0.823   0.906   0.879   0.953   1.005   0.988   0.962   0.999   1.061   1.061   1.118   1.045   1.008   1.123   1.086   1.015   0.974
   103.30    0.832   0.730   0.709   0.660   0.602   0.656   0.710   0.752   0.784   0.753   0.727   0.701   0.694   0.723   0.672   0.706   0.728   0.771   0.850   0.890   0.875   0.894   0.935   0.951   0.987   1.031   1.014   1.032   1.029   0.988   1.045   1.076   1.100   1.032   1.056
    98.65    0.826   0.758   0.736   0.726   0.668   0.652   0.677   0.700   0.710   0.696   0.678   0.654   0.699   0.682   0.682   0.690   0.738   0.792   0.817   0.846   0.894   0.912   0.949   0.974   0.960   0.962   0.956   0.973   0.978   0.966   0.999   0.996   1.008   1.014   1.031
    94.00    0.844   0.821   0.765   0.772   0.698   0.666   0.625   0.689   0.657   0.632   0.648   0.709   0.704   0.684   0.704   0.730   0.785   0.804   0.787   0.872   0.882   0.902   0.884   0.942   0.874   0.886   0.934   0.921   0.901   0.938   0.949   0.937   0.954   0.933   0.949
    89.35    0.822   0.806   0.778   0.740   0.702   0.671   0.613   0.635   0.660   0.652   0.632   0.666   0.694   0.670   0.708   0.709   0.756   0.781   0.809   0.836   0.855   0.895   0.901   0.890   0.884   0.879   0.889   0.892   0.862   0.930   0.988   0.900   0.933   0.919   0.859
    84.70    0.815   0.790   0.767   0.766   0.694   0.695   0.651   0.655   0.663   0.656   0.631   0.697   0.707   0.677   0.718   0.713   0.750   0.794   0.814   0.766   0.795   0.791   0.837   0.880   0.829   0.845   0.877   0.888   0.928   0.966   0.925   0.887   0.856   0.893   0.866
    80.05    0.787   0.822   0.747   0.771   0.711   0.670   0.665   0.672   0.636   0.676   0.663   0.702   0.670   0.710   0.735   0.708   0.711   0.785   0.844   0.812   0.796   0.757   0.813   0.833   0.881   0.842   0.884   0.884   0.912   0.929   0.864   0.924   0.925   0.960   0.963
    75.40    0.798   0.758   0.761   0.709   0.704   0.669   0.671   0.665   0.640   0.661   0.657   0.692   0.736   0.736   0.737   0.753   0.766   0.809   0.826   0.803   0.763   0.785   0.804   0.836   0.880   0.846   0.903   0.851   0.882   0.881   0.820   0.888   0.911   0.923   0.905
    70.75    0.747   0.763   0.756   0.726   0.700   0.697   0.698   0.675   0.663   0.708   0.682   0.720   0.731   0.785   0.777   0.806   0.770   0.746   0.793   0.782   0.797   0.826   0.874   0.822   0.911   0.929   0.896   0.859   0.937   0.905   0.884   0.894   0.853   0.877   0.864
    66.10    0.725   0.734   0.699   0.716   0.718   0.670   0.678   0.680   0.677   0.687   0.689   0.699   0.750   0.764   0.780   0.764   0.789   0.752   0.752   0.766   0.746   0.781   0.834   0.815   0.913   0.911   0.860   0.827   0.909   0.908   0.919   0.885   0.857   0.839   0.807
    61.45    0.711   0.739   0.755   0.731   0.730   0.670   0.683   0.669   0.642   0.662   0.658   0.704   0.758   0.780   0.787   0.709   0.765   0.747   0.757   0.757   0.746   0.729   0.735   0.816   0.860   0.913   0.854   0.834   0.926   0.950   0.975   0.918   0.872   0.894   0.805
    56.80    0.722   0.732   0.754   0.750   0.689   0.684   0.675   0.636   0.672   0.698   0.703   0.773   0.780   0.769   0.779   0.787   0.785   0.747   0.784   0.783   0.757   0.738   0.721   0.784   0.812   0.865   0.891   0.877   0.944   1.034   0.925   0.962   0.940   0.858   0.771
    52.15    0.762   0.773   0.732   0.711   0.726   0.690   0.663   0.679   0.652   0.710   0.763   0.717   0.705   0.769   0.814   0.816   0.772   0.752   0.739   0.743   0.744   0.734   0.689   0.671   0.765   0.820   0.839   0.882   0.904   0.941   0.986   0.899   0.927   0.857   0.785
    47.50    0.801   0.818   0.764   0.743   0.706   0.680   0.675   0.655   0.724   0.741   0.709   0.758   0.701   0.776   0.817   0.803   0.789   0.793   0.763   0.737   0.694   0.697   0.704   0.727   0.746   0.784   0.783   0.845   0.860   0.897   0.963   0.915   0.910   0.895   0.816
    42.85    0.788   0.813   0.751   0.718   0.688   0.662   0.663   0.657   0.688   0.701   0.736   0.755   0.730   0.726   0.773   0.798   0.808   0.841   0.799   0.752   0.702   0.676   0.682   0.727   0.783   0.790   0.766   0.819   0.834   0.870   0.890   0.939   0.864   0.857   0.796
    38.20    0.741   0.742   0.715   0.689   0.655   0.614   0.620   0.634   0.663   0.690   0.746   0.726   0.760   0.748   0.774   0.767   0.814   0.816   0.728   0.672   0.699   0.737   0.688   0.709   0.750   0.778   0.841   0.886   0.845   0.904   0.860   0.886   0.886   0.836   0.864
    33.55    0.757   0.747   0.670   0.682   0.651   0.668   0.642   0.633   0.640   0.676   0.702   0.749   0.723   0.706   0.728   0.759   0.767   0.753   0.702   0.622   0.652   0.730   0.728   0.733   0.836   0.858   0.883   0.850   0.892   0.913   0.875   0.880   0.892   0.850   0.829
    28.90    0.732   0.723   0.686   0.674   0.636   0.625   0.644   0.627   0.651   0.662   0.652   0.658   0.715   0.725   0.744   0.723   0.701   0.703   0.685   0.624   0.648   0.667   0.735   0.740   0.828   0.881   0.891   0.898   0.893   0.952   0.927   0.957   0.830   0.764   0.783
    24.25    0.746   0.750   0.708   0.726   0.682   0.704   0.656   0.631   0.646   0.615   0.650   0.670   0.712   0.681   0.748   0.724   0.701   0.682   0.671   0.687   0.681   0.701   0.794   0.764   0.847   0.867   0.884   0.936   0.890   0.967   0.928   0.896   0.814   0.817   0.814
    19.60    0.739   0.750   0.741   0.748   0.741   0.711   0.709   0.684   0.643   0.637   0.654   0.649   0.672   0.697   0.743   0.729   0.669   0.692   0.714   0.738   0.753   0.790   0.824   0.828   0.858   0.850   0.867   0.871   0.880   0.901   0.862   0.841   0.819   0.847   0.767
    14.95    0.750   0.744   0.756   0.739   0.741   0.767   0.754   0.717   0.673   0.675   0.716   0.696   0.746   0.744   0.769   0.766   0.691   0.691   0.721   0.709   0.730   0.794   0.844   0.839   0.858   0.891   0.823   0.831   0.787   0.823   0.798   0.744   0.766   0.802   0.781
    10.30    0.717   0.730   0.692   0.701   0.735   0.721   0.734   0.713   0.705   0.694   0.708   0.730   0.740   0.751   0.769   0.740   0.729   0.729   0.749   0.710   0.771   0.780   0.808   0.858   0.828   0.839   0.822   0.770   0.832   0.732   0.729   0.700   0.779   0.772   0.804
     5.65    0.690   0.725   0.759   0.712   0.701   0.687   0.689   0.724   0.700   0.738   0.751   0.732   0.702   0.709   0.768   0.780   0.774   0.755   0.707   0.674   0.760   0.749   0.782   0.833   0.793   0.814   0.773   0.761   0.753   0.762   0.772   0.753   0.738   0.782   0.757
     1.00    0.659   0.681   0.713   0.692   0.684   0.670   0.714   0.734   0.683   0.735   0.754   0.708   0.702   0.781   0.755   0.817   0.824   0.741   0.731   0.713   0.726   0.774   0.796   0.809   0.799   0.806   0.776   0.791   0.812   0.780   0.828   0.830   0.723   0.741   0.755

   Height   Standard deviation at grid points for the v component:
   168.40    0.512   0.520   0.507   0.513   0.519   0.523   0.524   0.530   0.535   0.562   0.555   0.542   0.553   0.515   0.521   0.533   0.562   0.528   0.504   0.493   0.505   0.499   0.507   0.484   0.507   0.528   0.549   0.546   0.529   0.524   0.498   0.507   0.513   0.524   0.512
   163.75    0.497   0.507   0.506   0.541   0.540   0.542   0.553   0.542   0.543   0.555   0.550   0.567   0.576   0.571   0.557   0.557   0.550   0.524   0.480   0.477   0.481   0.511   0.506   0.492   0.497   0.534   0.524   0.548   0.538   0.527   0.472   0.496   0.510   0.482   0.502
   159.10    0.514   0.527   0.517   0.533   0.520   0.547   0.554   0.557   0.550   0.561   0.513   0.543   0.590   0.579   0.548   0.566   0.543   0.518   0.489   0.481   0.477   0.487   0.505   0.497   0.493   0.516   0.537   0.537   0.558   0.526   0.497   0.489   0.485   0.501   0.487
   154.45    0.520   0.558   0.526   0.519   0.538   0.553   0.528   0.530   0.548   0.539   0.524   0.548   0.557   0.578   0.549   0.566   0.522   0.527   0.493   0.495   0.492   0.494   0.495   0.528   0.514   0.517   0.556   0.529   0.523   0.506   0.497   0.511   0.487   0.486   0.465
   149.80    0.548   0.568   0.556   0.539   0.533   0.548   0.535   0.535   0.558   0.527   0.511   0.546   0.552   0.558   0.563   0.553   0.540   0.539   0.522   0.486   0.498   0.496   0.504   0.519   0.513   0.515   0.525   0.523   0.498   0.500   0.487   0.491   0.470   0.482   0.460
   145.15    0.510   0.560   0.543   0.532   0.568   0.544   0.537   0.549   0.538   0.528   0.503   0.524   0.531   0.542   0.556   0.552   0.556   0.527   0.523   0.507   0.498   0.503   0.486   0.497   0.482   0.487   0.478   0.494   0.495   0.511   0.501   0.504   0.484   0.467   0.468
   140.50    0.519   0.563   0.566   0.571   0.539   0.538   0.549   0.545   0.530   0.530   0.502   0.497   0.507   0.522   0.548   0.564   0.551   0.526   0.538   0.513   0.517   0.522   0.522   0.506   0.482   0.453   0.444   0.474   0.482   0.500   0.512   0.516   0.500   0.473   0.471
   135.85    0.507   0.544   0.551   0.555   0.542   0.519   0.529   0.514   0.517   0.529   0.506   0.495   0.498   0.515   0.527   0.523   0.551   0.533   0.529   0.563   0.553   0.510   0.506   0.508   0.487   0.446   0.445   0.469   0.479   0.489   0.508   0.492   0.478   0.478   0.459
   131.20    0.522   0.534   0.544   0.560   0.540   0.525   0.530   0.535   0.514   0.507   0.512   0.508   0.520   0.543   0.560   0.537   0.531   0.554   0.561   0.569   0.567   0.537   0.492   0.493   0.489   0.467   0.450   0.459   0.473   0.483   0.500   0.497   0.477   0.466   0.457
   126.55    0.525   0.530   0.520   0.515   0.537   0.532   0.546   0.539   0.519   0.508   0.480   0.502   0.520   0.526   0.546   0.525   0.558   0.548   0.536   0.544   0.546   0.495   0.494   0.500   0.501   0.484   0.482   0.460   0.458   0.463   0.479   0.464   0.449   0.462   0.468
   121.90    0.505   0.497   0.516   0.530   0.528   0.531   0.546   0.553   0.524   0.509   0.477   0.499   0.485   0.506   0.525   0.539   0.527   0.545   0.538   0.549   0.541   0.500   0.477   0.464   0.465   0.495   0.481   0.467   0.466   0.469   0.467   0.482   0.461   0.467   0.466
   117.25    0.485   0.488   0.485   0.515   0.557   0.549   0.543   0.527   0.529   0.519   0.492   0.475   0.505   0.517   0.541   0.518   0.523   0.537   0.534   0.516   0.513   0.476   0.485   0.480   0.459   0.468   0.480   0.480   0.476   0.466   0.459   0.474   0.481   0.467   0.486
   112.60    0.483   0.492   0.496   0.520   0.542   0.551   0.529   0.502   0.494   0.523   0.501   0.485   0.508   0.527   0.509   0.526   0.545   0.513   0.505   0.498   0.494   0.486   0.471   0.486   0.467   0.471   0.460   0.481   0.485   0.471   0.457   0.473   0.488   0.506   0.504
   107.95    0.470   0.472   0.479   0.509   0.510   0.520   0.505   0.470   0.486   0.472   0.503   0.515   0.524   0.515   0.508   0.516   0.545   0.519   0.502   0.480   0.463   0.469   0.475   0.471   0.469   0.460   0.477   0.484   0.488   0.486   0.460   0.488   0.496   0.501   0.512
   103.30    0.456   0.477   0.461   0.482   0.493   0.515   0.495   0.489   0.489   0.490   0.506   0.500   0.499   0.488   0.516   0.518   0.541   0.509   0.493   0.487   0.468   0.462   0.477   0.477   0.458   0.479   0.472   0.488   0.501   0.480   0.475   0.480   0.484   0.501   0.512
    98.65    0.453   0.452   0.453   0.471   0.500   0.520   0.504   0.477   0.474   0.507   0.516   0.522   0.504   0.490   0.514   0.528   0.505   0.497   0.517   0.497   0.469   0.461   0.489   0.475   0.486   0.476   0.472   0.481   0.488   0.491   0.485   0.471   0.472   0.498   0.507
    94.00    0.462   0.448   0.461   0.467   0.483   0.499   0.482   0.488   0.490   0.503   0.501   0.510   0.502   0.513   0.503   0.503   0.503   0.501   0.504   0.495   0.479   0.484   0.468   0.454   0.463   0.490   0.483   0.472   0.480   0.472   0.463   0.471   0.488   0.478   0.501
    89.35    0.475   0.465   0.472   0.473   0.495   0.497   0.481   0.481   0.512   0.489   0.501   0.506   0.490   0.488   0.499   0.481   0.508   0.487   0.479   0.470   0.471   0.470   0.456   0.461   0.487   0.469   0.471   0.462   0.474   0.485   0.480   0.473   0.485   0.478   0.472
    84.70    0.482   0.457   0.466   0.467   0.494   0.492   0.494   0.508   0.495   0.486   0.476   0.496   0.492   0.488   0.494   0.474   0.481   0.470   0.475   0.453   0.456   0.454   0.455   0.460   0.463   0.494   0.463   0.467   0.472   0.474   0.465   0.469   0.472   0.492   0.504
    80.05    0.468   0.460   0.454   0.459   0.487   0.507   0.499   0.514   0.515   0.508   0.489   0.483   0.487   0.501   0.474   0.474   0.471   0.482   0.496   0.486   0.462   0.464   0.484   0.457   0.466   0.486   0.493   0.495   0.478   0.470   0.466   0.478   0.484   0.499   0.540
    75.40    0.480   0.471   0.452   0.472   0.494   0.493   0.474   0.495   0.498   0.497   0.480   0.490   0.509   0.496   0.492   0.484   0.483   0.491   0.498   0.491   0.472   0.475   0.484   0.507   0.496   0.509   0.511   0.479   0.474   0.451   0.445   0.451   0.472   0.510   0.525
    70.75    0.470   0.454   0.445   0.457   0.477   0.484   0.484   0.495   0.530   0.515   0.522   0.533   0.526   0.503   0.501   0.508   0.499   0.501   0.513   0.497   0.496   0.490   0.485   0.517   0.519   0.502   0.497   0.477   0.453   0.464   0.449   0.459   0.465   0.515   0.539
    66.10    0.482   0.470   0.457   0.436   0.462   0.486   0.474   0.500   0.528   0.526   0.506   0.503   0.506   0.520   0.529   0.515   0.487   0.488   0.515   0.492   0.496   0.502   0.494   0.507   0.504   0.488   0.483   0.463   0.481   0.482   0.492   0.486   0.510   0.527   0.576
    61.45    0.481   0.500   0.474   0.462   0.462   0.471   0.478   0.499   0.513   0.518   0.538   0.502   0.502   0.497   0.529   0.513   0.485   0.494   0.493   0.517   0.520   0.512   0.491   0.515   0.505   0.501   0.500   0.498   0.482   0.503   0.490   0.507   0.531   0.553   0.557
    56.80    0.506   0.498   0.491   0.470   0.460   0.469   0.472   0.496   0.510   0.526   0.515   0.505   0.507   0.484   0.524   0.517   0.489   0.484   0.517   0.508   0.529   0.523   0.498   0.532   0.494   0.516   0.493   0.494   0.489   0.506   0.499   0.537   0.548   0.559   0.561
    52.15    0.486   0.488   0.468   0.500   0.516   0.504   0.484   0.508   0.489   0.510   0.528   0.497   0.490   0.510   0.526   0.516   0.530   0.508   0.521   0.534   0.542   0.504   0.504   0.492   0.491   0.508   0.516   0.499   0.503   0.515   0.512   0.545   0.549   0.569   0.575
    47.50    0.511   0.485   0.502   0.513   0.541   0.507   0.490   0.491   0.512   0.518   0.492   0.499   0.492   0.500   0.534   0.520   0.529   0.517   0.513   0.509   0.534   0.517   0.486   0.462   0.491   0.503   0.497   0.519   0.541   0.559   0.532   0.547   0.562   0.580   0.542
    42.85    0.531   0.501   0.509   0.537   0.520   0.508   0.509   0.520   0.522   0.475   0.490   0.515   0.509   0.526   0.527   0.524   0.496   0.497   0.500   0.519   0.523   0.489   0.475   0.473   0.487   0.504   0.501   0.519   0.546   0.564   0.549   0.549   0.561   0.542   0.519
    38.20    0.523   0.516   0.525   0.545   0.531   0.534   0.515   0.508   0.511   0.482   0.482   0.480   0.516   0.513   0.517   0.544   0.517   0.487   0.483   0.502   0.510   0.497   0.494   0.491   0.506   0.513   0.513   0.517   0.547   0.531   0.526   0.540   0.526   0.511   0.515
    33.55    0.543   0.545   0.522   0.523   0.533   0.544   0.504   0.515   0.524   0.475   0.479   0.491   0.502   0.499   0.510   0.508   0.511   0.494   0.497   0.516   0.528   0.516   0.500   0.505   0.504   0.490   0.514   0.533   0.538   0.534   0.528   0.538   0.496   0.506   0.503
    28.90    0.513   0.519   0.528   0.488   0.526   0.541   0.535   0.518   0.533   0.501   0.501   0.487   0.484   0.498   0.498   0.512   0.510   0.488   0.505   0.510   0.497   0.494   0.500   0.511   0.518   0.506   0.513   0.520   0.535   0.533   0.533   0.517   0.487   0.487   0.491
    24.25    0.496   0.497   0.512   0.485   0.498   0.518   0.516   0.525   0.531   0.496   0.495   0.476   0.483   0.485   0.479   0.487   0.479   0.463   0.494   0.486   0.506   0.497   0.511   0.541   0.536   0.545   0.523   0.544   0.530   0.534   0.518   0.495   0.481   0.470   0.487
    19.60    0.512   0.513   0.496   0.474   0.498   0.498   0.488   0.508   0.491   0.464   0.476   0.487   0.491   0.486   0.480   0.472   0.453   0.487   0.503   0.486   0.483   0.502   0.523   0.528   0.525   0.528   0.516   0.530   0.529   0.520   0.498   0.460   0.458   0.469   0.480
    14.95    0.500   0.517   0.510   0.503   0.507   0.492   0.480   0.478   0.490   0.458   0.461   0.476   0.481   0.500   0.487   0.468   0.443   0.467   0.493   0.508   0.498   0.504   0.521   0.531   0.527   0.529   0.512   0.517   0.535   0.526   0.502   0.465   0.456   0.465   0.485
    10.30    0.510   0.523   0.504   0.503   0.508   0.484   0.498   0.474   0.479   0.489   0.468   0.470   0.493   0.468   0.483   0.474   0.478   0.465   0.495   0.499   0.512   0.513   0.535   0.516   0.502   0.503   0.518   0.515   0.525   0.499   0.500   0.487   0.471   0.472   0.474
     5.65    0.508   0.518   0.511   0.503   0.498   0.491   0.492   0.458   0.461   0.477   0.474   0.467   0.467   0.493   0.490   0.505   0.473   0.481   0.492   0.503   0.532   0.533   0.540   0.520   0.537   0.513   0.518   0.520   0.521   0.514   0.491   0.498   0.485   0.486   0.471
     1.00    0.488   0.498   0.499   0.489   0.466   0.494   0.488   0.460   0.478   0.490   0.492   0.453   0.456   0.468   0.482   0.510   0.506   0.498   0.511   0.507   0.528   0.516   0.511   0.523   0.536   0.533   0.518   0.529   0.512   0.506   0.491   0.493   0.481   0.492   0.501

   Height   Standard deviation at grid points for the w component:
   168.40    0.346   0.342   0.338   0.344   0.344   0.341   0.342   0.343   0.341   0.346   0.340   0.344   0.347   0.353   0.355   0.360   0.377   0.382   0.387   0.384   0.378   0.380   0.359   0.357   0.350   0.347   0.335   0.345   0.342   0.344   0.346   0.337   0.348   0.349   0.356
   163.75    0.347   0.344   0.358   0.340   0.321   0.343   0.342   0.345   0.341   0.344   0.348   0.329   0.350   0.352   0.355   0.352   0.375   0.402   0.388   0.391   0.368   0.363   0.369   0.369   0.354   0.347   0.354   0.349   0.346   0.336   0.334   0.346   0.354   0.364   0.349
   159.10    0.346   0.351   0.349   0.344   0.338   0.343   0.331   0.338   0.347   0.355   0.346   0.337   0.352   0.355   0.353   0.365   0.368   0.374   0.395   0.390   0.381   0.371   0.366   0.371   0.351   0.341   0.352   0.354   0.332   0.337   0.339   0.320   0.347   0.359   0.355
   154.45    0.350   0.345   0.331   0.345   0.338   0.337   0.345   0.360   0.348   0.337   0.337   0.338   0.341   0.350   0.351   0.358   0.367   0.371   0.388   0.363   0.364   0.357   0.361   0.357   0.341   0.346   0.340   0.337   0.346   0.338   0.328   0.338   0.350   0.355   0.361
   149.80    0.348   0.346   0.333   0.350   0.349   0.329   0.347   0.351   0.358   0.358   0.355   0.351   0.328   0.347   0.371   0.366   0.378   0.381   0.382   0.356   0.363   0.354   0.359   0.358   0.354   0.340   0.324   0.332   0.342   0.350   0.339   0.340   0.339   0.338   0.332
   145.15    0.349   0.341   0.343   0.359   0.352   0.347   0.344   0.352   0.360   0.356   0.359   0.335   0.342   0.355   0.375   0.385   0.395   0.386   0.369   0.350   0.352   0.350   0.351   0.341   0.351   0.355   0.341   0.339   0.346   0.334   0.337   0.346   0.358   0.342   0.339
   140.50    0.344   0.350   0.351   0.362   0.360   0.343   0.350   0.348   0.356   0.351   0.343   0.346   0.341   0.358   0.361   0.376   0.402   0.383   0.361   0.374   0.358   0.351   0.362   0.353   0.358   0.348   0.347   0.344   0.345   0.333   0.333   0.348   0.353   0.363   0.341
   135.85    0.344   0.347   0.354   0.349   0.361   0.348   0.349   0.341   0.348   0.342   0.346   0.359   0.349   0.344   0.365   0.388   0.388   0.389   0.383   0.379   0.378   0.367   0.367   0.367   0.361   0.354   0.342   0.348   0.341   0.339   0.339   0.352   0.342   0.346   0.347
   131.20    0.340   0.356   0.337   0.333   0.348   0.354   0.352   0.346   0.345   0.373   0.366   0.356   0.351   0.351   0.360   0.379   0.374   0.362   0.373   0.373   0.366   0.366   0.368   0.370   0.363   0.348   0.344   0.356   0.347   0.332   0.333   0.337   0.351   0.353   0.341
   126.55    0.347   0.340   0.338   0.353   0.360   0.348   0.364   0.347   0.358   0.369   0.373   0.381   0.353   0.373   0.376   0.368   0.366   0.376   0.380   0.359   0.368   0.360   0.360   0.368   0.364   0.345   0.340   0.359   0.350   0.329   0.324   0.336   0.337   0.351   0.346
   121.90    0.339   0.338   0.342   0.351   0.358   0.354   0.360   0.352   0.366   0.375   0.380   0.370   0.369   0.374   0.369   0.362   0.359   0.364   0.364   0.344   0.340   0.347   0.343   0.350   0.360   0.348   0.354   0.359   0.350   0.343   0.342   0.331   0.330   0.333   0.323
   117.25    0.344   0.348   0.360   0.360   0.372   0.360   0.360   0.367   0.371   0.376   0.367   0.354   0.364   0.345   0.368   0.372   0.362   0.355   0.346   0.347   0.348   0.348   0.346   0.356   0.366   0.359   0.353   0.353   0.341   0.327   0.338   0.338   0.337   0.331   0.341
   112.60    0.331   0.338   0.351   0.358   0.367   0.360   0.358   0.368   0.377   0.384   0.370   0.354   0.368   0.355   0.365   0.366   0.370   0.353   0.352   0.352   0.332   0.345   0.346   0.359   0.365   0.366   0.355   0.348   0.353   0.336   0.355   0.340   0.335   0.341   0.342
   107.95    0.330   0.336   0.348   0.366   0.379   0.368   0.362   0.368   0.373   0.379   0.363   0.382   0.367   0.363   0.359   0.376   0.360   0.361   0.351   0.344   0.344   0.341   0.341   0.343   0.345   0.350   0.348   0.359   0.363   0.339   0.344   0.350   0.334   0.351   0.367
   103.30    0.339   0.359   0.356   0.373   0.378   0.371   0.378   0.378   0.374   0.361   0.363   0.372   0.374   0.361   0.365   0.365   0.357   0.370   0.356   0.352   0.336   0.334   0.323   0.346   0.350   0.336   0.358   0.364   0.346   0.348   0.330   0.337   0.322   0.355   0.363
    98.65    0.342   0.338   0.353   0.356   0.379   0.372   0.383   0.380   0.370   0.360   0.364   0.370   0.372   0.371   0.365   0.357   0.348   0.357   0.356   0.347   0.343   0.332   0.328   0.341   0.348   0.351   0.367   0.364   0.351   0.334   0.333   0.318   0.347   0.355   0.362
    94.00    0.345   0.343   0.330   0.337   0.358   0.377   0.382   0.378   0.350   0.335   0.368   0.369   0.372   0.361   0.365   0.365   0.354   0.356   0.359   0.357   0.339   0.344   0.335   0.350   0.356   0.347   0.359   0.352   0.342   0.350   0.350   0.335   0.348   0.340   0.359
    89.35    0.348   0.339   0.338   0.345   0.362   0.370   0.366   0.362   0.357   0.364   0.373   0.383   0.368   0.365   0.379   0.371   0.367   0.364   0.370   0.373   0.364   0.350   0.343   0.336   0.348   0.350   0.348   0.354   0.360   0.360   0.351   0.356   0.357   0.375   0.356
    84.70    0.348   0.339   0.346   0.358   0.363   0.353   0.363   0.350   0.351   0.360   0.360   0.350   0.365   0.348   0.367   0.368   0.373   0.371   0.369   0.358   0.351   0.339   0.332   0.333   0.342   0.352   0.351   0.348   0.350   0.351   0.354   0.363   0.366   0.378   0.364
    80.05    0.351   0.355   0.355   0.367   0.363   0.350   0.367   0.365   0.355   0.369   0.368   0.351   0.355   0.354   0.353   0.343   0.364   0.350   0.367   0.351   0.348   0.343   0.336   0.331   0.320   0.339   0.344   0.354   0.350   0.348   0.350   0.361   0.378   0.375   0.374
    75.40    0.362   0.358   0.359   0.363   0.357   0.356   0.355   0.354   0.361   0.359   0.356   0.359   0.361   0.358   0.355   0.351   0.357   0.355   0.366   0.353   0.339   0.344   0.330   0.332   0.320   0.352   0.344   0.353   0.334   0.344   0.353   0.359   0.363   0.363   0.373
    70.75    0.368   0.371   0.366   0.360   0.357   0.350   0.364   0.345   0.351   0.354   0.363   0.365   0.352   0.367   0.360   0.354   0.358   0.364   0.360   0.352   0.353   0.354   0.353   0.342   0.338   0.341   0.360   0.352   0.343   0.347   0.360   0.359   0.359   0.358   0.358
    66.10    0.381   0.386   0.384   0.374   0.347   0.348   0.354   0.349   0.353   0.354   0.349   0.350   0.354   0.359   0.351   0.358   0.366   0.367   0.357   0.358   0.352   0.350   0.350   0.352   0.337   0.336   0.352   0.347   0.339   0.348   0.353   0.348   0.351   0.355   0.351
    61.45    0.376   0.376   0.377   0.360   0.352   0.351   0.360   0.345   0.350   0.351   0.348   0.346   0.365   0.371   0.339   0.345   0.365   0.371   0.367   0.367   0.347   0.357   0.351   0.343   0.346   0.338   0.337   0.352   0.365   0.342   0.347   0.340   0.338   0.346   0.343
    56.80    0.384   0.385   0.376   0.364   0.361   0.344   0.353   0.360   0.358   0.355   0.364   0.355   0.367   0.377   0.352   0.347   0.348   0.352   0.347   0.355   0.357   0.357   0.351   0.352   0.354   0.327   0.332   0.342   0.355   0.340   0.354   0.341   0.341   0.341   0.344
    52.15    0.382   0.385   0.389   0.374   0.358   0.342   0.343   0.349   0.369   0.359   0.348   0.373   0.370   0.372   0.369   0.349   0.342   0.343   0.350   0.347   0.353   0.349   0.342   0.350   0.355   0.348   0.332   0.335   0.349   0.350   0.357   0.358   0.342   0.343   0.335
    47.50    0.381   0.379   0.380   0.374   0.352   0.350   0.350   0.358   0.359   0.360   0.351   0.364   0.356   0.374   0.378   0.365   0.348   0.338   0.341   0.338   0.342   0.355   0.333   0.346   0.347   0.350   0.342   0.342   0.347   0.349   0.342   0.339   0.348   0.341   0.340
    42.85    0.359   0.363   0.378   0.371   0.352   0.351   0.349   0.345   0.349   0.345   0.335   0.347   0.363   0.362   0.372   0.364   0.365   0.358   0.336   0.337   0.335   0.345   0.337   0.343   0.349   0.341   0.347   0.341   0.349   0.340   0.338   0.329   0.334   0.331   0.329
    38.20    0.356   0.359   0.373   0.384   0.353   0.360   0.358   0.334   0.345   0.341   0.339   0.336   0.352   0.358   0.368   0.359   0.354   0.354   0.331   0.340   0.331   0.345   0.334   0.343   0.345   0.346   0.347   0.357   0.348   0.348   0.352   0.346   0.334   0.330   0.334
    33.55    0.356   0.373   0.369   0.360   0.364   0.357   0.343   0.342   0.339   0.335   0.337   0.341   0.360   0.364   0.362   0.365   0.371   0.354   0.341   0.358   0.343   0.347   0.348   0.347   0.346   0.360   0.362   0.361   0.351   0.344   0.343   0.337   0.330   0.327   0.329
    28.90    0.349   0.354   0.356   0.362   0.360   0.359   0.341   0.339   0.354   0.348   0.359   0.352   0.337   0.369   0.370   0.365   0.351   0.366   0.355   0.363   0.354   0.355   0.343   0.353   0.368   0.373   0.364   0.364   0.347   0.351   0.346   0.328   0.334   0.332   0.329
    24.25    0.348   0.338   0.347   0.355   0.353   0.352   0.357   0.347   0.348   0.353   0.364   0.355   0.360   0.362   0.373   0.365   0.362   0.360   0.375   0.359   0.358   0.350   0.354   0.347   0.339   0.355   0.361   0.356   0.345   0.341   0.324   0.330   0.322   0.337   0.332
    19.60    0.336   0.349   0.339   0.349   0.356   0.344   0.353   0.347   0.356   0.364   0.366   0.363   0.359   0.356   0.352   0.361   0.366   0.356   0.351   0.358   0.342   0.357   0.359   0.350   0.340   0.344   0.349   0.348   0.346   0.345   0.318   0.324   0.321   0.332   0.333
    14.95    0.341   0.334   0.336   0.339   0.356   0.345   0.349   0.351   0.353   0.371   0.368   0.359   0.350   0.356   0.363   0.357   0.360   0.347   0.335   0.347   0.357   0.348   0.359   0.363   0.357   0.348   0.351   0.345   0.353   0.338   0.344   0.327   0.317   0.316   0.324
    10.30    0.337   0.339   0.337   0.343   0.337   0.353   0.353   0.348   0.348   0.359   0.350   0.348   0.359   0.347   0.356   0.355   0.344   0.360   0.346   0.338   0.344   0.345   0.361   0.370   0.347   0.349   0.343   0.346   0.348   0.355   0.336   0.330   0.338   0.337   0.325
     5.65    0.330   0.348   0.337   0.330   0.327   0.338   0.357   0.353   0.351   0.360   0.366   0.360   0.366   0.355   0.343   0.351   0.344   0.360   0.342   0.336   0.335   0.347   0.365   0.359   0.365   0.342   0.341   0.345   0.337   0.346   0.336   0.334   0.346   0.342   0.326
     1.00    0.353   0.339   0.334   0.336   0.331   0.341   0.355   0.350   0.345   0.357   0.363   0.374   0.364   0.348   0.351   0.364   0.362   0.351   0.354   0.350   0.350   0.355   0.355   0.355   0.351   0.327   0.336   0.336   0.342   0.338   0.337   0.338   0.343   0.342   0.335

   Mean standard deviation across all grid points:
      u component:    0.817 m/s
      v component:    0.503 m/s
      w component:    0.353 m/s


U-component (X) statistics from the interpolated hub point:

   Mean =   9.9913 m/s
   TI   =   7.8140 %


Processing complete.  6054.5 CPU seconds used.
