
This summary file was generated by TurbSim (from OpenFAST-v3.5.3) on 20-Apr-2025 at 06:28:51.


Runtime Options:

 376932526  Random seed #1
    RANLUX  Type of random number generator
         F  Output binary HH turbulence parameters?
         F  Output formatted turbulence parameters?
         F  Output AeroDyn HH files?
         T  Output AeroDyn FF files?
         F  Output BLADED FF files?
         F  Output tower data?
         F  Output HAWC FF files?
         F  Output formatted FF files?
         T  Output coherent turbulence time step file?
 0 -  NONE  IEC turbulence models scaled to exact specified standard deviation


Turbine/Model Specifications:

        37  Vertical grid-point matrix dimension
        35  Horizontal grid-point matrix dimension
     0.250  Time step [seconds]
   900.000  Analysis time [seconds]
   900.000  Usable output time [seconds]
    89.350  Hub height [m]
   167.400  Grid height [m]
   158.100  Grid width [m]
     0.000  Vertical flow angle [degrees]
     0.000  Horizontal flow angle [degrees]


Meteorological Boundary Conditions:

    TIMESR  User-input time series spectral model
       N/A  IEC standard
       N/A  IEC turbulence characteristic
       N/A  IEC turbulence type
       N/A  IEC Extreme Turbulence Model (ETM) "c" parameter [m/s]
       PL   Wind profile type
    90.000  Reference height [m]
    10.000  Reference wind speed [m/s]
       N/A  Jet height [m]
     0.120  Power law exponent
     0.030  Surface roughness length [m]


Non-IEC Meteorological Boundary Conditions:

    45.000  Site latitude [degrees]
     0.050  Gradient Richardson number
     0.480  Friction or shear velocity [m/s]
       N/A  Mixing layer depth [m]
       N/A  Mean hub u'w' Reynolds stress
       N/A  Mean hub u'v' Reynolds stress
       N/A  Mean hub v'w' Reynolds stress


Spatial Coherence Models:

       IEC  u-component coherence model
       IEC  v-component coherence model
       IEC  w-component coherence model
(   12.000, 0.353E-03)  u-component coherence parameters
(   12.000, 0.353E-03)  v-component coherence parameters
(   12.000, 0.353E-03)  w-component coherence parameters
       N/A  Coherence exponent


Coherent Turbulence Scaling Parameters:

.\EventData
            Name of the path containing the coherent turbulence data files
       les  Type of coherent turbulence data files
     1.000  Disturbance scale (ratio of wave height to rotor diameter)
     0.500  Fractional location of tower centerline from right
     0.500  Fractional location of hub height from the bottom of the dataset
    30.000  Minimum start time for coherent structures [seconds]


Profiles from User-Defined Time-Series Input:

  Height   Wind Speed   Horizontal Angle   Vertical Angle
   (m)        (m/s)          (deg)              (deg)    
  ------   ----------   ----------------   --------------
   94.00      10.00          -0.63                0.00


You have requested that the following file(s) be generated:

   /kfs3/scratch/agupta/Projects/RL_Incubator/FinalRuns_Veer/Seed4/./FFSim_Seed4/Cond00_v10.0_PL0.12_TI7.5/Case1_wdirp02/Seed_6/TurbSim/HighT14.bts (AeroDyn/TurbSim full-field wind file)


Turbulence Simulation Scaling Parameter Summary:

   Turbulence model used                            =  User-input time series
   Gradient Richardson number                       =    0.050
   Monin-Obukhov (M-O) z/L parameter                =    0.067
   Monin-Obukhov (M-O) length scale                 = 1340.250 m
   Mean wind speed at hub height                    =    9.991 m/s

   Wind profile type                                =  Power law
   Power law exponent                               =    0.120
   Mean shear across rotor disk                     =    0.019 (m/s)/m
   Assumed rotor diameter                           =  158.100 m
   Surface roughness length                         =    0.030 m

   Nyquist frequency of turbulent wind field        =    2.000 Hz

   Number of time steps in the FFT                  =     3600
   Number of time steps output                      =     3600
   Number of points simulated                       =     1296


Mean Flow Angles:

   Vertical   =   0.0 degrees
   Horizontal =   0.0 degrees

Mean Wind Speed Profile:

   Height    Wind Speed   Horizontal Angle  Vertical Angle  U-comp (X)   V-comp (Y)   W-comp (Z)
     (m)        (m/s)         (degrees)       (degrees)       (m/s)        (m/s)        (m/s)   
   ------    ----------   ----------------  --------------  ----------   ----------   ----------
    168.4       10.78            0.00            0.00         10.78         0.00         0.00
    163.7       10.74            0.00            0.00         10.74         0.00         0.00
    159.1       10.71            0.00            0.00         10.71         0.00         0.00
    154.4       10.67            0.00            0.00         10.67         0.00         0.00
    149.8       10.63            0.00            0.00         10.63         0.00         0.00
    145.1       10.59            0.00            0.00         10.59         0.00         0.00
    140.5       10.55            0.00            0.00         10.55         0.00         0.00
    135.8       10.51            0.00            0.00         10.51         0.00         0.00
    131.2       10.46            0.00            0.00         10.46         0.00         0.00
    126.5       10.42            0.00            0.00         10.42         0.00         0.00
    121.9       10.37            0.00            0.00         10.37         0.00         0.00
    117.2       10.32            0.00            0.00         10.32         0.00         0.00
    112.6       10.27            0.00            0.00         10.27         0.00         0.00
    107.9       10.22            0.00            0.00         10.22         0.00         0.00
    103.3       10.17            0.00            0.00         10.17         0.00         0.00
     98.6       10.11            0.00            0.00         10.11         0.00         0.00
     94.0       10.05            0.00            0.00         10.05         0.00         0.00
     89.3        9.99            0.00            0.00          9.99         0.00         0.00
     84.7        9.93            0.00            0.00          9.93         0.00         0.00
     80.0        9.86            0.00            0.00          9.86         0.00         0.00
     75.4        9.79            0.00            0.00          9.79         0.00         0.00
     70.7        9.72            0.00            0.00          9.72         0.00         0.00
     66.1        9.64            0.00            0.00          9.64         0.00         0.00
     61.4        9.55            0.00            0.00          9.55         0.00         0.00
     56.8        9.46            0.00            0.00          9.46         0.00         0.00
     52.1        9.37            0.00            0.00          9.37         0.00         0.00
     47.5        9.26            0.00            0.00          9.26         0.00         0.00
     42.8        9.15            0.00            0.00          9.15         0.00         0.00
     38.2        9.02            0.00            0.00          9.02         0.00         0.00
     33.5        8.88            0.00            0.00          8.88         0.00         0.00
     28.9        8.73            0.00            0.00          8.73         0.00         0.00
     24.2        8.54            0.00            0.00          8.54         0.00         0.00
     19.6        8.33            0.00            0.00          8.33         0.00         0.00
     14.9        8.06            0.00            0.00          8.06         0.00         0.00
     10.3        7.71            0.00            0.00          7.71         0.00         0.00
      5.6        7.17            0.00            0.00          7.17         0.00         0.00
      1.0        5.83            0.00            0.00          5.83         0.00         0.00


Harvested Random Seeds after Generation of the Random Numbers:

     65026800 K 1
            0 K 2


Hub-Height Simulated Turbulence Statistical Summary:

   Type of Wind        Min (m/s)   Mean (m/s)    Max (m/s)  Sigma (m/s)       TI (%)
   ----------------    ---------   ----------    ---------  -----------       ------
   Longitudinal (u)         7.98         9.99        12.69        0.803        8.041
   Lateral (v)             -2.40         0.00         1.95        0.688        6.882
   Vertical (w)            -1.08        -0.00         1.25        0.356        3.568
   U component              7.98         9.99        12.69        0.803        8.041
   V component             -2.40         0.00         1.95        0.688        6.882
   W component             -1.08        -0.00         1.25        0.356        3.568
   Horizontal (U&V)         7.98        10.01        12.73        0.805        8.040
   Total                    7.98        10.02        12.73        0.805        8.031

                       Min Reynolds     Mean Reynolds    Max Reynolds    Correlation
   Product             Stress (m/s)^2   Stress (m/s)^2   Stress (m/s)^2  Coefficient
   ----------------    --------------   --------------   --------------  -----------
   u'w'                     -1.466            -0.018             1.509        -0.061
   u'v'                     -3.530             0.089             3.650         0.162
   v'w'                     -1.441             0.027             1.218         0.112


   Friction Velocity (Ustar)  =      0.133 m/s
   Maximum Instantaneous TKE  =      4.430 (m/s)^2
   Maximum Instantaneous CTKE =      1.835 (m/s)^2


Grid Point Variance Summary:

   Y-coord  -79.05  -74.40  -69.75  -65.10  -60.45  -55.80  -51.15  -46.50  -41.85  -37.20  -32.55  -27.90  -23.25  -18.60  -13.95   -9.30   -4.65    0.00    4.65    9.30   13.95   18.60   23.25   27.90   32.55   37.20   41.85   46.50   51.15   55.80   60.45   65.10   69.75   74.40   79.05

   Height   Standard deviation at grid points for the u component:
   168.40    0.726   0.672   0.681   0.668   0.627   0.641   0.721   0.736   0.693   0.766   0.728   0.710   0.731   0.698   0.673   0.659   0.714   0.701   0.641   0.674   0.673   0.710   0.696   0.730   0.733   0.731   0.786   0.767   0.806   0.751   0.687   0.707   0.705   0.732   0.731
   163.75    0.674   0.682   0.686   0.669   0.662   0.662   0.708   0.659   0.673   0.697   0.667   0.704   0.747   0.708   0.681   0.693   0.668   0.701   0.696   0.671   0.661   0.738   0.760   0.783   0.743   0.764   0.810   0.814   0.808   0.755   0.700   0.710   0.694   0.714   0.718
   159.10    0.711   0.682   0.684   0.670   0.661   0.662   0.663   0.668   0.653   0.613   0.662   0.690   0.702   0.717   0.694   0.702   0.697   0.660   0.716   0.725   0.768   0.809   0.782   0.793   0.814   0.793   0.835   0.851   0.787   0.754   0.726   0.712   0.745   0.781   0.786
   154.45    0.676   0.680   0.605   0.624   0.640   0.644   0.645   0.659   0.656   0.617   0.640   0.676   0.692   0.695   0.672   0.697   0.663   0.726   0.719   0.756   0.733   0.810   0.793   0.765   0.821   0.853   0.826   0.856   0.857   0.835   0.796   0.745   0.796   0.842   0.818
   149.80    0.681   0.685   0.617   0.621   0.655   0.667   0.634   0.623   0.630   0.607   0.609   0.646   0.709   0.682   0.660   0.682   0.683   0.723   0.721   0.734   0.767   0.824   0.840   0.785   0.844   0.825   0.851   0.830   0.874   0.828   0.814   0.856   0.906   0.812   0.790
   145.15    0.678   0.664   0.650   0.653   0.664   0.666   0.614   0.613   0.584   0.578   0.597   0.641   0.640   0.649   0.679   0.698   0.717   0.717   0.733   0.768   0.807   0.811   0.859   0.859   0.838   0.826   0.832   0.844   0.821   0.825   0.851   0.839   0.892   0.836   0.837
   140.50    0.653   0.658   0.614   0.635   0.649   0.586   0.618   0.552   0.566   0.592   0.617   0.638   0.631   0.639   0.668   0.732   0.728   0.806   0.826   0.819   0.816   0.795   0.817   0.814   0.796   0.824   0.806   0.803   0.795   0.823   0.833   0.846   0.852   0.816   0.841
   135.85    0.655   0.636   0.592   0.576   0.593   0.611   0.600   0.591   0.572   0.569   0.610   0.609   0.621   0.660   0.672   0.712   0.746   0.795   0.863   0.871   0.866   0.835   0.760   0.766   0.784   0.748   0.796   0.777   0.778   0.801   0.842   0.824   0.835   0.791   0.770
   131.20    0.696   0.687   0.602   0.596   0.579   0.555   0.562   0.612   0.589   0.546   0.582   0.626   0.597   0.590   0.679   0.670   0.704   0.743   0.820   0.850   0.849   0.870   0.838   0.783   0.789   0.790   0.800   0.786   0.736   0.750   0.786   0.833   0.804   0.859   0.776
   126.55    0.687   0.650   0.596   0.596   0.575   0.558   0.565   0.615   0.587   0.569   0.610   0.609   0.626   0.618   0.701   0.695   0.734   0.716   0.773   0.803   0.845   0.918   0.901   0.884   0.822   0.773   0.810   0.782   0.772   0.771   0.778   0.781   0.788   0.803   0.759
   121.90    0.683   0.674   0.621   0.647   0.590   0.575   0.588   0.628   0.659   0.554   0.571   0.626   0.656   0.687   0.722   0.683   0.745   0.719   0.784   0.832   0.806   0.850   0.863   0.877   0.855   0.800   0.815   0.763   0.832   0.824   0.841   0.782   0.756   0.753   0.754
   117.25    0.645   0.639   0.642   0.622   0.618   0.608   0.598   0.647   0.617   0.603   0.614   0.671   0.680   0.732   0.731   0.725   0.763   0.788   0.841   0.867   0.801   0.834   0.844   0.876   0.880   0.840   0.806   0.773   0.855   0.865   0.824   0.825   0.798   0.828   0.801
   112.60    0.677   0.635   0.636   0.660   0.636   0.559   0.590   0.614   0.595   0.601   0.672   0.671   0.634   0.695   0.746   0.739   0.776   0.850   0.842   0.853   0.857   0.829   0.806   0.843   0.852   0.837   0.758   0.797   0.798   0.869   0.855   0.823   0.776   0.773   0.796
   107.95    0.648   0.626   0.657   0.667   0.576   0.569   0.619   0.628   0.600   0.629   0.657   0.665   0.651   0.675   0.734   0.777   0.762   0.816   0.835   0.869   0.863   0.859   0.864   0.850   0.805   0.814   0.785   0.801   0.786   0.807   0.806   0.816   0.745   0.816   0.735
   103.30    0.629   0.633   0.650   0.637   0.627   0.615   0.586   0.606   0.582   0.591   0.604   0.648   0.684   0.692   0.739   0.727   0.706   0.724   0.823   0.903   0.899   0.858   0.803   0.828   0.802   0.803   0.805   0.809   0.808   0.789   0.767   0.739   0.748   0.754   0.763
    98.65    0.648   0.624   0.640   0.659   0.665   0.647   0.629   0.647   0.607   0.586   0.633   0.659   0.714   0.719   0.758   0.742   0.675   0.756   0.834   0.888   0.856   0.854   0.820   0.776   0.744   0.815   0.795   0.823   0.748   0.763   0.741   0.713   0.711   0.718   0.744
    94.00    0.637   0.633   0.631   0.628   0.676   0.655   0.641   0.640   0.653   0.579   0.613   0.646   0.687   0.729   0.708   0.711   0.767   0.795   0.810   0.870   0.831   0.841   0.824   0.747   0.798   0.805   0.836   0.830   0.775   0.761   0.717   0.710   0.665   0.713   0.708
    89.35    0.591   0.626   0.651   0.678   0.674   0.657   0.610   0.635   0.668   0.609   0.628   0.642   0.678   0.703   0.690   0.726   0.767   0.803   0.814   0.823   0.860   0.824   0.801   0.798   0.754   0.840   0.814   0.804   0.768   0.765   0.751   0.707   0.704   0.727   0.702
    84.70    0.625   0.635   0.698   0.683   0.652   0.637   0.623   0.640   0.664   0.609   0.614   0.637   0.641   0.628   0.649   0.716   0.718   0.756   0.818   0.851   0.812   0.824   0.795   0.780   0.790   0.797   0.836   0.837   0.790   0.740   0.707   0.718   0.700   0.706   0.683
    80.05    0.629   0.659   0.686   0.693   0.657   0.665   0.697   0.674   0.665   0.655   0.670   0.682   0.621   0.619   0.661   0.687   0.703   0.758   0.811   0.821   0.796   0.800   0.726   0.741   0.809   0.801   0.779   0.833   0.803   0.745   0.745   0.743   0.730   0.669   0.659
    75.40    0.678   0.661   0.720   0.670   0.641   0.642   0.640   0.638   0.627   0.665   0.671   0.612   0.589   0.625   0.690   0.754   0.708   0.718   0.749   0.741   0.777   0.756   0.705   0.730   0.735   0.765   0.773   0.759   0.831   0.793   0.859   0.778   0.705   0.712   0.710
    70.75    0.713   0.696   0.661   0.650   0.627   0.628   0.653   0.599   0.606   0.644   0.649   0.617   0.616   0.661   0.682   0.721   0.710   0.677   0.683   0.720   0.700   0.712   0.706   0.706   0.723   0.725   0.785   0.752   0.785   0.838   0.830   0.769   0.743   0.718   0.741
    66.10    0.718   0.685   0.672   0.637   0.624   0.593   0.623   0.610   0.584   0.646   0.655   0.606   0.609   0.664   0.666   0.696   0.729   0.725   0.725   0.751   0.734   0.729   0.735   0.744   0.692   0.689   0.737   0.760   0.741   0.820   0.816   0.778   0.740   0.732   0.734
    61.45    0.739   0.696   0.706   0.692   0.591   0.517   0.559   0.587   0.640   0.685   0.649   0.663   0.655   0.631   0.683   0.744   0.737   0.787   0.748   0.810   0.805   0.769   0.777   0.766   0.698   0.734   0.745   0.781   0.769   0.716   0.775   0.784   0.762   0.776   0.761
    56.80    0.713   0.704   0.690   0.682   0.591   0.497   0.539   0.602   0.640   0.681   0.676   0.679   0.677   0.672   0.678   0.731   0.730   0.748   0.796   0.783   0.725   0.790   0.814   0.801   0.744   0.770   0.735   0.760   0.780   0.745   0.742   0.759   0.766   0.736   0.774
    52.15    0.710   0.693   0.687   0.660   0.588   0.542   0.589   0.598   0.628   0.691   0.705   0.699   0.691   0.707   0.733   0.686   0.699   0.726   0.738   0.751   0.726   0.779   0.798   0.780   0.754   0.732   0.783   0.764   0.723   0.701   0.742   0.746   0.745   0.742   0.786
    47.50    0.700   0.683   0.665   0.628   0.587   0.557   0.582   0.593   0.613   0.684   0.661   0.672   0.666   0.663   0.709   0.722   0.724   0.732   0.762   0.745   0.741   0.808   0.727   0.715   0.771   0.734   0.757   0.725   0.726   0.690   0.710   0.763   0.779   0.770   0.778
    42.85    0.688   0.699   0.683   0.606   0.622   0.567   0.570   0.617   0.611   0.604   0.670   0.689   0.689   0.695   0.686   0.704   0.695   0.790   0.859   0.806   0.800   0.763   0.718   0.751   0.816   0.789   0.756   0.742   0.715   0.686   0.767   0.766   0.793   0.762   0.767
    38.20    0.677   0.682   0.712   0.627   0.571   0.565   0.602   0.587   0.573   0.561   0.596   0.661   0.665   0.727   0.697   0.624   0.692   0.761   0.827   0.813   0.827   0.844   0.819   0.809   0.861   0.830   0.808   0.802   0.773   0.747   0.786   0.763   0.777   0.763   0.751
    33.55    0.656   0.667   0.628   0.643   0.628   0.626   0.609   0.551   0.551   0.590   0.610   0.646   0.660   0.694   0.662   0.633   0.668   0.766   0.750   0.792   0.783   0.813   0.811   0.789   0.842   0.831   0.798   0.783   0.851   0.826   0.827   0.788   0.745   0.749   0.728
    28.90    0.640   0.651   0.577   0.638   0.635   0.636   0.609   0.567   0.562   0.612   0.617   0.623   0.640   0.667   0.696   0.697   0.679   0.720   0.740   0.772   0.737   0.766   0.786   0.759   0.737   0.804   0.795   0.772   0.829   0.890   0.862   0.819   0.757   0.755   0.711
    24.25    0.636   0.639   0.600   0.645   0.651   0.664   0.668   0.640   0.598   0.581   0.579   0.627   0.658   0.716   0.712   0.698   0.730   0.740   0.733   0.746   0.717   0.785   0.703   0.722   0.787   0.791   0.755   0.791   0.786   0.871   0.846   0.823   0.774   0.746   0.703
    19.60    0.656   0.646   0.636   0.615   0.656   0.639   0.666   0.665   0.623   0.652   0.633   0.689   0.705   0.793   0.737   0.710   0.734   0.770   0.757   0.758   0.796   0.728   0.741   0.718   0.752   0.805   0.802   0.818   0.849   0.873   0.885   0.801   0.824   0.809   0.792
    14.95    0.689   0.629   0.637   0.619   0.651   0.612   0.677   0.677   0.679   0.672   0.672   0.691   0.735   0.769   0.767   0.725   0.772   0.750   0.715   0.731   0.781   0.727   0.696   0.715   0.744   0.802   0.845   0.807   0.837   0.855   0.803   0.755   0.804   0.737   0.751
    10.30    0.680   0.632   0.658   0.655   0.643   0.597   0.651   0.665   0.633   0.660   0.677   0.717   0.768   0.815   0.847   0.823   0.798   0.768   0.765   0.759   0.760   0.753   0.718   0.743   0.760   0.785   0.780   0.786   0.748   0.789   0.744   0.765   0.737   0.770   0.747
     5.65    0.714   0.659   0.625   0.612   0.610   0.619   0.666   0.704   0.679   0.666   0.685   0.714   0.756   0.816   0.792   0.814   0.825   0.792   0.757   0.771   0.823   0.770   0.742   0.726   0.743   0.783   0.808   0.755   0.731   0.762   0.754   0.728   0.728   0.772   0.764
     1.00    0.704   0.694   0.669   0.642   0.635   0.677   0.691   0.757   0.736   0.699   0.674   0.689   0.743   0.729   0.737   0.755   0.778   0.781   0.810   0.778   0.829   0.862   0.806   0.740   0.715   0.711   0.741   0.702   0.744   0.748   0.769   0.741   0.790   0.812   0.783

   Height   Standard deviation at grid points for the v component:
   168.40    0.623   0.643   0.665   0.662   0.692   0.709   0.744   0.742   0.673   0.631   0.613   0.587   0.561   0.567   0.571   0.593   0.604   0.610   0.627   0.604   0.596   0.598   0.629   0.634   0.640   0.606   0.545   0.595   0.621   0.629   0.614   0.648   0.645   0.645   0.625
   163.75    0.637   0.649   0.649   0.662   0.669   0.669   0.709   0.686   0.682   0.624   0.623   0.612   0.559   0.557   0.568   0.581   0.601   0.604   0.628   0.617   0.603   0.598   0.590   0.611   0.593   0.607   0.598   0.591   0.607   0.606   0.623   0.647   0.644   0.634   0.636
   159.10    0.600   0.636   0.627   0.591   0.623   0.646   0.677   0.664   0.669   0.659   0.614   0.603   0.614   0.541   0.555   0.586   0.555   0.579   0.625   0.630   0.608   0.584   0.577   0.630   0.640   0.608   0.563   0.579   0.598   0.630   0.616   0.628   0.664   0.632   0.626
   154.45    0.589   0.599   0.587   0.622   0.626   0.624   0.633   0.666   0.652   0.634   0.605   0.572   0.602   0.614   0.574   0.605   0.578   0.575   0.566   0.596   0.590   0.609   0.605   0.609   0.627   0.643   0.599   0.650   0.615   0.614   0.615   0.610   0.629   0.627   0.635
   149.80    0.594   0.591   0.613   0.632   0.588   0.628   0.622   0.647   0.624   0.620   0.621   0.615   0.613   0.606   0.611   0.638   0.608   0.580   0.562   0.582   0.592   0.597   0.587   0.606   0.599   0.619   0.661   0.650   0.650   0.612   0.621   0.612   0.583   0.640   0.658
   145.15    0.637   0.632   0.603   0.586   0.585   0.620   0.639   0.635   0.645   0.640   0.673   0.664   0.629   0.600   0.606   0.631   0.598   0.600   0.596   0.591   0.603   0.608   0.595   0.610   0.569   0.643   0.648   0.648   0.666   0.660   0.659   0.620   0.629   0.626   0.670
   140.50    0.657   0.633   0.653   0.590   0.553   0.601   0.627   0.649   0.716   0.678   0.664   0.645   0.627   0.618   0.605   0.625   0.635   0.595   0.598   0.596   0.619   0.627   0.594   0.624   0.605   0.642   0.659   0.670   0.666   0.671   0.696   0.610   0.616   0.661   0.615
   135.85    0.657   0.694   0.646   0.628   0.607   0.619   0.626   0.680   0.684   0.682   0.670   0.626   0.606   0.607   0.632   0.657   0.646   0.662   0.623   0.652   0.619   0.628   0.631   0.635   0.635   0.646   0.623   0.623   0.655   0.675   0.656   0.669   0.635   0.634   0.664
   131.20    0.630   0.639   0.654   0.611   0.616   0.649   0.667   0.666   0.696   0.666   0.624   0.625   0.625   0.638   0.657   0.683   0.670   0.647   0.627   0.656   0.633   0.639   0.641   0.625   0.644   0.647   0.654   0.620   0.665   0.657   0.663   0.658   0.643   0.623   0.623
   126.55    0.624   0.668   0.648   0.637   0.642   0.618   0.634   0.662   0.636   0.656   0.656   0.600   0.631   0.682   0.666   0.687   0.684   0.648   0.618   0.611   0.600   0.627   0.600   0.636   0.633   0.614   0.671   0.668   0.664   0.629   0.634   0.651   0.632   0.598   0.578
   121.90    0.672   0.652   0.658   0.680   0.684   0.652   0.667   0.645   0.615   0.611   0.605   0.597   0.634   0.659   0.660   0.636   0.659   0.638   0.648   0.605   0.620   0.628   0.627   0.606   0.613   0.641   0.654   0.657   0.626   0.612   0.643   0.620   0.616   0.566   0.579
   117.25    0.697   0.667   0.657   0.650   0.672   0.675   0.647   0.639   0.606   0.597   0.579   0.619   0.640   0.645   0.677   0.659   0.673   0.664   0.637   0.633   0.625   0.638   0.637   0.640   0.629   0.636   0.670   0.672   0.646   0.625   0.609   0.613   0.604   0.557   0.578
   112.60    0.665   0.662   0.666   0.667   0.660   0.696   0.652   0.658   0.614   0.606   0.644   0.609   0.631   0.658   0.640   0.673   0.661   0.664   0.669   0.643   0.622   0.612   0.630   0.627   0.598   0.627   0.655   0.645   0.649   0.607   0.593   0.577   0.588   0.586   0.572
   107.95    0.701   0.689   0.668   0.667   0.665   0.697   0.695   0.675   0.646   0.629   0.613   0.661   0.667   0.647   0.675   0.693   0.652   0.639   0.640   0.607   0.623   0.615   0.618   0.629   0.610   0.618   0.644   0.632   0.636   0.620   0.600   0.569   0.551   0.572   0.570
   103.30    0.659   0.701   0.660   0.666   0.676   0.674   0.653   0.681   0.651   0.664   0.634   0.662   0.682   0.676   0.680   0.648   0.652   0.652   0.621   0.643   0.639   0.614   0.649   0.655   0.611   0.616   0.667   0.670   0.646   0.610   0.596   0.619   0.564   0.559   0.607
    98.65    0.647   0.668   0.674   0.681   0.661   0.622   0.648   0.655   0.629   0.652   0.638   0.677   0.668   0.689   0.733   0.664   0.662   0.676   0.623   0.690   0.662   0.669   0.656   0.652   0.605   0.586   0.630   0.624   0.620   0.631   0.641   0.631   0.604   0.599   0.618
    94.00    0.655   0.655   0.644   0.657   0.646   0.666   0.651   0.660   0.643   0.605   0.631   0.689   0.709   0.711   0.744   0.745   0.710   0.652   0.635   0.677   0.696   0.704   0.684   0.663   0.593   0.564   0.573   0.596   0.615   0.631   0.613   0.625   0.649   0.638   0.645
    89.35    0.655   0.649   0.645   0.664   0.637   0.700   0.650   0.676   0.659   0.625   0.636   0.660   0.705   0.741   0.757   0.733   0.706   0.688   0.699   0.714   0.699   0.686   0.727   0.698   0.615   0.589   0.595   0.611   0.564   0.639   0.639   0.629   0.618   0.646   0.646
    84.70    0.678   0.638   0.653   0.646   0.665   0.692   0.727   0.678   0.679   0.680   0.684   0.695   0.713   0.730   0.762   0.772   0.750   0.730   0.721   0.737   0.682   0.672   0.706   0.701   0.622   0.602   0.586   0.599   0.608   0.618   0.623   0.621   0.647   0.673   0.674
    80.05    0.695   0.694   0.694   0.691   0.692   0.700   0.721   0.719   0.712   0.739   0.717   0.685   0.666   0.717   0.750   0.733   0.719   0.727   0.707   0.742   0.727   0.721   0.719   0.678   0.664   0.613   0.612   0.581   0.589   0.651   0.628   0.626   0.635   0.680   0.672
    75.40    0.638   0.647   0.668   0.665   0.715   0.704   0.708   0.737   0.739   0.738   0.719   0.721   0.715   0.732   0.729   0.747   0.722   0.717   0.717   0.746   0.757   0.731   0.687   0.654   0.646   0.614   0.622   0.603   0.612   0.633   0.621   0.612   0.647   0.661   0.638
    70.75    0.678   0.650   0.684   0.652   0.703   0.716   0.699   0.683   0.690   0.698   0.698   0.722   0.726   0.748   0.740   0.742   0.694   0.730   0.738   0.725   0.733   0.723   0.714   0.667   0.634   0.626   0.625   0.590   0.626   0.659   0.635   0.646   0.617   0.627   0.643
    66.10    0.680   0.662   0.667   0.682   0.701   0.681   0.672   0.686   0.690   0.651   0.692   0.760   0.726   0.749   0.725   0.744   0.691   0.695   0.709   0.754   0.733   0.703   0.672   0.658   0.623   0.632   0.637   0.588   0.616   0.639   0.667   0.641   0.627   0.626   0.631
    61.45    0.681   0.652   0.651   0.661   0.648   0.656   0.669   0.661   0.676   0.684   0.699   0.735   0.742   0.697   0.745   0.723   0.686   0.710   0.715   0.731   0.735   0.746   0.724   0.669   0.695   0.637   0.639   0.626   0.631   0.661   0.654   0.614   0.599   0.621   0.607
    56.80    0.655   0.625   0.620   0.622   0.599   0.646   0.672   0.687   0.617   0.635   0.693   0.713   0.694   0.723   0.729   0.722   0.657   0.690   0.702   0.710   0.733   0.720   0.711   0.696   0.659   0.639   0.642   0.657   0.687   0.689   0.641   0.621   0.598   0.585   0.595
    52.15    0.614   0.602   0.577   0.582   0.619   0.633   0.647   0.637   0.646   0.633   0.686   0.727   0.713   0.720   0.718   0.684   0.670   0.685   0.721   0.728   0.711   0.701   0.699   0.646   0.664   0.642   0.676   0.695   0.698   0.688   0.668   0.632   0.621   0.589   0.574
    47.50    0.602   0.598   0.589   0.597   0.605   0.650   0.646   0.647   0.620   0.649   0.645   0.677   0.660   0.681   0.679   0.703   0.682   0.692   0.747   0.714   0.673   0.695   0.656   0.683   0.663   0.672   0.676   0.717   0.700   0.699   0.659   0.597   0.591   0.566   0.543
    42.85    0.582   0.599   0.595   0.577   0.599   0.611   0.585   0.629   0.605   0.610   0.660   0.659   0.664   0.677   0.636   0.665   0.706   0.736   0.733   0.730   0.696   0.679   0.647   0.674   0.670   0.677   0.675   0.703   0.680   0.687   0.625   0.583   0.576   0.581   0.549
    38.20    0.589   0.591   0.588   0.596   0.568   0.566   0.589   0.593   0.618   0.622   0.657   0.666   0.702   0.678   0.643   0.649   0.695   0.713   0.706   0.719   0.707   0.701   0.666   0.667   0.674   0.688   0.659   0.652   0.661   0.659   0.652   0.600   0.596   0.565   0.552
    33.55    0.586   0.611   0.630   0.645   0.625   0.567   0.572   0.588   0.592   0.590   0.621   0.646   0.630   0.656   0.644   0.644   0.683   0.705   0.722   0.727   0.703   0.698   0.668   0.688   0.692   0.673   0.624   0.632   0.640   0.659   0.629   0.633   0.597   0.574   0.545
    28.90    0.606   0.626   0.631   0.619   0.611   0.585   0.578   0.589   0.565   0.584   0.616   0.597   0.624   0.632   0.621   0.631   0.595   0.662   0.667   0.677   0.692   0.690   0.688   0.695   0.691   0.650   0.640   0.628   0.620   0.648   0.631   0.613   0.600   0.603   0.573
    24.25    0.698   0.669   0.653   0.597   0.593   0.595   0.552   0.568   0.590   0.623   0.616   0.635   0.642   0.633   0.646   0.624   0.610   0.628   0.633   0.646   0.671   0.703   0.665   0.676   0.668   0.639   0.634   0.636   0.630   0.634   0.637   0.629   0.638   0.604   0.633
    19.60    0.712   0.668   0.670   0.639   0.602   0.588   0.581   0.604   0.640   0.635   0.621   0.637   0.648   0.641   0.601   0.604   0.593   0.629   0.643   0.652   0.670   0.683   0.709   0.666   0.658   0.619   0.628   0.628   0.631   0.662   0.630   0.619   0.640   0.635   0.625
    14.95    0.707   0.679   0.650   0.648   0.615   0.616   0.618   0.598   0.629   0.636   0.621   0.619   0.591   0.608   0.616   0.604   0.602   0.609   0.641   0.704   0.670   0.694   0.676   0.624   0.649   0.642   0.665   0.663   0.619   0.640   0.629   0.673   0.641   0.664   0.669
    10.30    0.676   0.669   0.692   0.651   0.590   0.609   0.620   0.630   0.612   0.612   0.619   0.625   0.609   0.587   0.624   0.634   0.621   0.620   0.624   0.674   0.688   0.684   0.652   0.640   0.633   0.670   0.659   0.654   0.626   0.654   0.660   0.684   0.701   0.709   0.672
     5.65    0.659   0.704   0.683   0.638   0.631   0.661   0.646   0.654   0.618   0.583   0.579   0.608   0.625   0.629   0.585   0.614   0.658   0.653   0.641   0.654   0.660   0.691   0.695   0.633   0.638   0.646   0.657   0.647   0.620   0.644   0.657   0.648   0.685   0.680   0.705
     1.00    0.704   0.711   0.662   0.652   0.671   0.695   0.714   0.656   0.629   0.662   0.610   0.576   0.626   0.620   0.572   0.629   0.658   0.709   0.669   0.617   0.665   0.652   0.652   0.657   0.626   0.613   0.621   0.627   0.594   0.612   0.634   0.628   0.638   0.673   0.681

   Height   Standard deviation at grid points for the w component:
   168.40    0.352   0.354   0.340   0.353   0.367   0.359   0.353   0.351   0.350   0.336   0.353   0.336   0.337   0.359   0.350   0.345   0.355   0.365   0.367   0.367   0.374   0.371   0.353   0.348   0.332   0.339   0.340   0.339   0.352   0.347   0.329   0.326   0.335   0.340   0.350
   163.75    0.365   0.356   0.344   0.348   0.359   0.355   0.352   0.350   0.347   0.348   0.340   0.342   0.340   0.344   0.344   0.358   0.357   0.363   0.366   0.369   0.365   0.349   0.360   0.355   0.341   0.336   0.334   0.326   0.335   0.345   0.347   0.329   0.322   0.344   0.354
   159.10    0.356   0.357   0.352   0.346   0.352   0.352   0.357   0.346   0.346   0.344   0.342   0.346   0.328   0.339   0.350   0.356   0.357   0.369   0.363   0.359   0.357   0.358   0.368   0.358   0.355   0.346   0.346   0.349   0.344   0.348   0.353   0.347   0.321   0.332   0.341
   154.45    0.341   0.348   0.351   0.349   0.373   0.352   0.347   0.340   0.335   0.339   0.343   0.352   0.343   0.347   0.350   0.351   0.357   0.371   0.365   0.365   0.367   0.360   0.351   0.350   0.355   0.334   0.330   0.338   0.351   0.342   0.347   0.342   0.328   0.319   0.344
   149.80    0.339   0.347   0.362   0.355   0.362   0.369   0.349   0.340   0.347   0.347   0.345   0.338   0.344   0.355   0.346   0.356   0.359   0.352   0.348   0.344   0.353   0.357   0.343   0.345   0.337   0.330   0.324   0.334   0.335   0.345   0.338   0.337   0.321   0.325   0.336
   145.15    0.343   0.353   0.355   0.368   0.359   0.368   0.353   0.349   0.350   0.350   0.348   0.347   0.351   0.346   0.359   0.357   0.346   0.346   0.338   0.342   0.352   0.358   0.347   0.349   0.342   0.343   0.340   0.345   0.345   0.350   0.343   0.331   0.323   0.330   0.336
   140.50    0.339   0.350   0.354   0.360   0.365   0.363   0.360   0.364   0.356   0.356   0.347   0.358   0.353   0.352   0.364   0.353   0.333   0.351   0.341   0.344   0.344   0.346   0.340   0.349   0.352   0.355   0.354   0.344   0.358   0.344   0.355   0.345   0.337   0.325   0.335
   135.85    0.347   0.347   0.354   0.360   0.357   0.342   0.360   0.362   0.348   0.343   0.355   0.365   0.357   0.357   0.360   0.351   0.337   0.340   0.341   0.352   0.336   0.342   0.348   0.347   0.359   0.353   0.354   0.364   0.367   0.357   0.353   0.338   0.337   0.326   0.330
   131.20    0.349   0.358   0.374   0.351   0.354   0.362   0.359   0.361   0.354   0.353   0.361   0.362   0.364   0.358   0.362   0.344   0.342   0.339   0.349   0.346   0.348   0.343   0.345   0.356   0.360   0.351   0.354   0.356   0.361   0.364   0.356   0.335   0.340   0.340   0.344
   126.55    0.358   0.356   0.362   0.357   0.360   0.376   0.380   0.369   0.364   0.374   0.375   0.367   0.368   0.362   0.359   0.351   0.342   0.356   0.344   0.333   0.342   0.348   0.354   0.355   0.343   0.345   0.365   0.354   0.357   0.361   0.352   0.356   0.335   0.343   0.364
   121.90    0.349   0.354   0.362   0.370   0.382   0.373   0.369   0.368   0.368   0.365   0.370   0.357   0.369   0.362   0.357   0.359   0.360   0.366   0.348   0.346   0.347   0.345   0.350   0.356   0.337   0.344   0.363   0.360   0.354   0.355   0.370   0.356   0.353   0.360   0.369
   117.25    0.361   0.360   0.361   0.369   0.361   0.372   0.363   0.363   0.363   0.369   0.365   0.348   0.355   0.354   0.346   0.340   0.355   0.357   0.360   0.364   0.351   0.340   0.347   0.352   0.339   0.354   0.356   0.357   0.367   0.365   0.352   0.359   0.372   0.372   0.372
   112.60    0.366   0.364   0.381   0.380   0.364   0.375   0.364   0.366   0.373   0.351   0.359   0.354   0.344   0.331   0.343   0.343   0.344   0.342   0.362   0.369   0.361   0.347   0.348   0.348   0.346   0.359   0.358   0.353   0.348   0.358   0.355   0.355   0.360   0.373   0.373
   107.95    0.368   0.368   0.377   0.372   0.371   0.378   0.372   0.371   0.376   0.357   0.355   0.348   0.350   0.348   0.335   0.337   0.350   0.357   0.359   0.349   0.360   0.359   0.353   0.362   0.345   0.348   0.348   0.348   0.351   0.357   0.358   0.364   0.356   0.372   0.359
   103.30    0.369   0.376   0.377   0.363   0.367   0.367   0.363   0.366   0.364   0.357   0.349   0.346   0.344   0.334   0.331   0.348   0.348   0.367   0.364   0.348   0.359   0.357   0.369   0.353   0.343   0.344   0.349   0.361   0.356   0.356   0.355   0.370   0.371   0.373   0.377
    98.65    0.372   0.378   0.370   0.381   0.367   0.371   0.362   0.357   0.373   0.356   0.345   0.344   0.347   0.336   0.328   0.340   0.357   0.361   0.369   0.347   0.349   0.361   0.359   0.357   0.356   0.349   0.353   0.354   0.360   0.353   0.357   0.356   0.365   0.365   0.372
    94.00    0.373   0.360   0.357   0.358   0.367   0.365   0.375   0.367   0.353   0.357   0.361   0.341   0.341   0.346   0.339   0.343   0.351   0.357   0.347   0.332   0.341   0.353   0.358   0.356   0.343   0.342   0.342   0.349   0.351   0.362   0.374   0.366   0.361   0.361   0.363
    89.35    0.364   0.368   0.364   0.361   0.363   0.364   0.361   0.365   0.361   0.372   0.350   0.348   0.339   0.343   0.343   0.344   0.357   0.356   0.350   0.337   0.329   0.342   0.353   0.346   0.347   0.347   0.343   0.353   0.356   0.374   0.372   0.364   0.353   0.350   0.362
    84.70    0.378   0.371   0.366   0.373   0.361   0.359   0.353   0.371   0.369   0.369   0.370   0.350   0.336   0.344   0.347   0.345   0.353   0.346   0.341   0.337   0.329   0.330   0.346   0.343   0.342   0.344   0.352   0.354   0.365   0.369   0.372   0.364   0.360   0.345   0.363
    80.05    0.372   0.361   0.356   0.369   0.361   0.350   0.345   0.354   0.359   0.361   0.363   0.357   0.353   0.348   0.356   0.353   0.358   0.330   0.336   0.347   0.353   0.350   0.354   0.374   0.361   0.353   0.346   0.349   0.346   0.369   0.365   0.353   0.351   0.351   0.352
    75.40    0.364   0.364   0.372   0.364   0.355   0.333   0.347   0.348   0.361   0.356   0.380   0.360   0.356   0.347   0.352   0.355   0.345   0.339   0.334   0.346   0.355   0.365   0.352   0.354   0.370   0.338   0.339   0.352   0.363   0.356   0.365   0.364   0.355   0.335   0.346
    70.75    0.361   0.366   0.365   0.363   0.358   0.351   0.345   0.349   0.344   0.353   0.376   0.368   0.354   0.342   0.344   0.353   0.345   0.344   0.346   0.352   0.359   0.361   0.355   0.354   0.351   0.339   0.344   0.358   0.363   0.356   0.351   0.352   0.358   0.354   0.347
    66.10    0.351   0.362   0.375   0.356   0.352   0.354   0.349   0.347   0.367   0.363   0.371   0.363   0.343   0.339   0.354   0.348   0.350   0.341   0.367   0.352   0.360   0.377   0.372   0.349   0.338   0.354   0.363   0.365   0.371   0.359   0.362   0.357   0.351   0.360   0.363
    61.45    0.357   0.357   0.357   0.366   0.360   0.376   0.353   0.363   0.366   0.362   0.366   0.352   0.354   0.345   0.350   0.342   0.358   0.363   0.361   0.352   0.369   0.363   0.365   0.354   0.347   0.349   0.366   0.360   0.371   0.371   0.359   0.359   0.348   0.350   0.353
    56.80    0.372   0.376   0.365   0.354   0.359   0.369   0.364   0.363   0.365   0.360   0.353   0.347   0.364   0.349   0.343   0.335   0.356   0.374   0.366   0.355   0.370   0.367   0.357   0.352   0.346   0.352   0.359   0.353   0.365   0.377   0.365   0.356   0.353   0.359   0.351
    52.15    0.360   0.363   0.365   0.360   0.368   0.363   0.360   0.355   0.346   0.353   0.336   0.348   0.347   0.349   0.346   0.341   0.348   0.358   0.355   0.359   0.362   0.362   0.355   0.353   0.356   0.358   0.351   0.359   0.365   0.363   0.366   0.359   0.360   0.355   0.360
    47.50    0.365   0.355   0.363   0.367   0.365   0.359   0.375   0.350   0.339   0.355   0.351   0.356   0.342   0.341   0.341   0.341   0.342   0.333   0.337   0.342   0.348   0.348   0.355   0.357   0.353   0.346   0.350   0.347   0.363   0.363   0.366   0.358   0.360   0.353   0.358
    42.85    0.350   0.356   0.363   0.369   0.364   0.362   0.360   0.350   0.342   0.337   0.342   0.350   0.347   0.347   0.332   0.339   0.331   0.327   0.333   0.342   0.348   0.353   0.350   0.360   0.349   0.338   0.340   0.354   0.359   0.358   0.348   0.353   0.358   0.363   0.355
    38.20    0.367   0.352   0.375   0.369   0.359   0.360   0.353   0.348   0.348   0.343   0.350   0.337   0.350   0.348   0.351   0.336   0.332   0.331   0.333   0.334   0.356   0.349   0.357   0.362   0.350   0.347   0.347   0.353   0.356   0.350   0.350   0.339   0.342   0.355   0.350
    33.55    0.362   0.376   0.377   0.370   0.359   0.365   0.352   0.347   0.359   0.360   0.346   0.342   0.349   0.347   0.339   0.357   0.351   0.349   0.335   0.354   0.348   0.375   0.368   0.362   0.358   0.360   0.359   0.365   0.363   0.346   0.339   0.339   0.331   0.342   0.341
    28.90    0.378   0.360   0.368   0.364   0.358   0.363   0.363   0.357   0.361   0.343   0.354   0.355   0.344   0.345   0.349   0.362   0.367   0.369   0.352   0.347   0.348   0.368   0.366   0.363   0.362   0.370   0.361   0.362   0.359   0.341   0.345   0.315   0.331   0.340   0.339
    24.25    0.372   0.361   0.357   0.345   0.361   0.361   0.368   0.366   0.363   0.351   0.354   0.346   0.353   0.354   0.353   0.361   0.363   0.361   0.360   0.348   0.354   0.363   0.361   0.358   0.365   0.367   0.377   0.372   0.370   0.345   0.343   0.344   0.342   0.347   0.349
    19.60    0.348   0.362   0.344   0.348   0.351   0.353   0.363   0.370   0.362   0.352   0.347   0.355   0.345   0.350   0.338   0.354   0.358   0.371   0.365   0.359   0.363   0.370   0.367   0.360   0.360   0.369   0.370   0.368   0.383   0.367   0.353   0.343   0.343   0.355   0.355
    14.95    0.345   0.354   0.349   0.348   0.360   0.353   0.347   0.349   0.366   0.356   0.349   0.350   0.348   0.345   0.352   0.349   0.343   0.343   0.358   0.355   0.353   0.362   0.353   0.370   0.366   0.351   0.363   0.365   0.376   0.370   0.355   0.353   0.347   0.343   0.345
    10.30    0.353   0.359   0.352   0.352   0.364   0.362   0.346   0.352   0.352   0.368   0.377   0.351   0.356   0.359   0.353   0.357   0.350   0.349   0.344   0.348   0.363   0.370   0.362   0.368   0.366   0.353   0.355   0.370   0.367   0.365   0.353   0.337   0.340   0.348   0.347
     5.65    0.367   0.364   0.364   0.354   0.354   0.358   0.343   0.348   0.355   0.353   0.361   0.353   0.352   0.348   0.349   0.354   0.354   0.362   0.346   0.349   0.349   0.366   0.367   0.358   0.357   0.358   0.360   0.351   0.360   0.365   0.360   0.354   0.358   0.350   0.351
     1.00    0.356   0.357   0.364   0.356   0.359   0.359   0.351   0.356   0.345   0.363   0.364   0.357   0.351   0.339   0.354   0.369   0.360   0.359   0.359   0.353   0.364   0.365   0.373   0.371   0.358   0.366   0.351   0.367   0.361   0.356   0.360   0.354   0.359   0.375   0.367

   Mean standard deviation across all grid points:
      u component:    0.721 m/s
      v component:    0.646 m/s
      w component:    0.354 m/s


U-component (X) statistics from the interpolated hub point:

   Mean =   9.9913 m/s
   TI   =   8.0412 %


Processing complete.  6512.2 CPU seconds used.
