
This summary file was generated by TurbSim (from OpenFAST-v3.5.3) on 20-Apr-2025 at 09:42:31.


Runtime Options:

**********  Random seed #1
    RANLUX  Type of random number generator
         F  Output binary HH turbulence parameters?
         F  Output formatted turbulence parameters?
         F  Output AeroDyn HH files?
         T  Output AeroDyn FF files?
         F  Output BLADED FF files?
         F  Output tower data?
         F  Output HAWC FF files?
         F  Output formatted FF files?
         T  Output coherent turbulence time step file?
 0 -  NONE  IEC turbulence models scaled to exact specified standard deviation


Turbine/Model Specifications:

        37  Vertical grid-point matrix dimension
        35  Horizontal grid-point matrix dimension
     0.250  Time step [seconds]
   900.000  Analysis time [seconds]
   900.000  Usable output time [seconds]
    89.350  Hub height [m]
   167.400  Grid height [m]
   158.100  Grid width [m]
     0.000  Vertical flow angle [degrees]
     0.000  Horizontal flow angle [degrees]


Meteorological Boundary Conditions:

    TIMESR  User-input time series spectral model
       N/A  IEC standard
       N/A  IEC turbulence characteristic
       N/A  IEC turbulence type
       N/A  IEC Extreme Turbulence Model (ETM) "c" parameter [m/s]
       PL   Wind profile type
    90.000  Reference height [m]
    10.000  Reference wind speed [m/s]
       N/A  Jet height [m]
     0.120  Power law exponent
     0.030  Surface roughness length [m]


Non-IEC Meteorological Boundary Conditions:

    45.000  Site latitude [degrees]
     0.050  Gradient Richardson number
     0.480  Friction or shear velocity [m/s]
       N/A  Mixing layer depth [m]
       N/A  Mean hub u'w' Reynolds stress
       N/A  Mean hub u'v' Reynolds stress
       N/A  Mean hub v'w' Reynolds stress


Spatial Coherence Models:

       IEC  u-component coherence model
       IEC  v-component coherence model
       IEC  w-component coherence model
(   12.000, 0.353E-03)  u-component coherence parameters
(   12.000, 0.353E-03)  v-component coherence parameters
(   12.000, 0.353E-03)  w-component coherence parameters
       N/A  Coherence exponent


Coherent Turbulence Scaling Parameters:

.\EventData
            Name of the path containing the coherent turbulence data files
       les  Type of coherent turbulence data files
     1.000  Disturbance scale (ratio of wave height to rotor diameter)
     0.500  Fractional location of tower centerline from right
     0.500  Fractional location of hub height from the bottom of the dataset
    30.000  Minimum start time for coherent structures [seconds]


Profiles from User-Defined Time-Series Input:

  Height   Wind Speed   Horizontal Angle   Vertical Angle
   (m)        (m/s)          (deg)              (deg)    
  ------   ----------   ----------------   --------------
   94.00      10.00          -0.63                0.00


You have requested that the following file(s) be generated:

   /kfs3/scratch/agupta/Projects/RL_Incubator/FinalRuns_Veer/Seed4/./FFSim_Seed4/Cond00_v10.0_PL0.12_TI3.0/Case2_wdirp04/Seed_7/TurbSim/HighT12.bts (AeroDyn/TurbSim full-field wind file)


Turbulence Simulation Scaling Parameter Summary:

   Turbulence model used                            =  User-input time series
   Gradient Richardson number                       =    0.050
   Monin-Obukhov (M-O) z/L parameter                =    0.067
   Monin-Obukhov (M-O) length scale                 = 1340.250 m
   Mean wind speed at hub height                    =    9.991 m/s

   Wind profile type                                =  Power law
   Power law exponent                               =    0.120
   Mean shear across rotor disk                     =    0.019 (m/s)/m
   Assumed rotor diameter                           =  158.100 m
   Surface roughness length                         =    0.030 m

   Nyquist frequency of turbulent wind field        =    2.000 Hz

   Number of time steps in the FFT                  =     3600
   Number of time steps output                      =     3600
   Number of points simulated                       =     1296


Mean Flow Angles:

   Vertical   =   0.0 degrees
   Horizontal =   0.0 degrees

Mean Wind Speed Profile:

   Height    Wind Speed   Horizontal Angle  Vertical Angle  U-comp (X)   V-comp (Y)   W-comp (Z)
     (m)        (m/s)         (degrees)       (degrees)       (m/s)        (m/s)        (m/s)   
   ------    ----------   ----------------  --------------  ----------   ----------   ----------
    168.4       10.78            0.00            0.00         10.78         0.00         0.00
    163.7       10.74            0.00            0.00         10.74         0.00         0.00
    159.1       10.71            0.00            0.00         10.71         0.00         0.00
    154.4       10.67            0.00            0.00         10.67         0.00         0.00
    149.8       10.63            0.00            0.00         10.63         0.00         0.00
    145.1       10.59            0.00            0.00         10.59         0.00         0.00
    140.5       10.55            0.00            0.00         10.55         0.00         0.00
    135.8       10.51            0.00            0.00         10.51         0.00         0.00
    131.2       10.46            0.00            0.00         10.46         0.00         0.00
    126.5       10.42            0.00            0.00         10.42         0.00         0.00
    121.9       10.37            0.00            0.00         10.37         0.00         0.00
    117.2       10.32            0.00            0.00         10.32         0.00         0.00
    112.6       10.27            0.00            0.00         10.27         0.00         0.00
    107.9       10.22            0.00            0.00         10.22         0.00         0.00
    103.3       10.17            0.00            0.00         10.17         0.00         0.00
     98.6       10.11            0.00            0.00         10.11         0.00         0.00
     94.0       10.05            0.00            0.00         10.05         0.00         0.00
     89.3        9.99            0.00            0.00          9.99         0.00         0.00
     84.7        9.93            0.00            0.00          9.93         0.00         0.00
     80.0        9.86            0.00            0.00          9.86         0.00         0.00
     75.4        9.79            0.00            0.00          9.79         0.00         0.00
     70.7        9.72            0.00            0.00          9.72         0.00         0.00
     66.1        9.64            0.00            0.00          9.64         0.00         0.00
     61.4        9.55            0.00            0.00          9.55         0.00         0.00
     56.8        9.46            0.00            0.00          9.46         0.00         0.00
     52.1        9.37            0.00            0.00          9.37         0.00         0.00
     47.5        9.26            0.00            0.00          9.26         0.00         0.00
     42.8        9.15            0.00            0.00          9.15         0.00         0.00
     38.2        9.02            0.00            0.00          9.02         0.00         0.00
     33.5        8.88            0.00            0.00          8.88         0.00         0.00
     28.9        8.73            0.00            0.00          8.73         0.00         0.00
     24.2        8.54            0.00            0.00          8.54         0.00         0.00
     19.6        8.33            0.00            0.00          8.33         0.00         0.00
     14.9        8.06            0.00            0.00          8.06         0.00         0.00
     10.3        7.71            0.00            0.00          7.71         0.00         0.00
      5.6        7.17            0.00            0.00          7.17         0.00         0.00
      1.0        5.83            0.00            0.00          5.83         0.00         0.00


Harvested Random Seeds after Generation of the Random Numbers:

     65026800 K 1
            0 K 2


Hub-Height Simulated Turbulence Statistical Summary:

   Type of Wind        Min (m/s)   Mean (m/s)    Max (m/s)  Sigma (m/s)       TI (%)
   ----------------    ---------   ----------    ---------  -----------       ------
   Longitudinal (u)         9.13         9.99        11.02        0.279        2.796
   Lateral (v)             -0.83         0.00         1.13        0.274        2.741
   Vertical (w)            -0.45        -0.00         0.47        0.136        1.356
   U component              9.13         9.99        11.02        0.279        2.796
   V component             -0.83         0.00         1.13        0.274        2.741
   W component             -0.45        -0.00         0.47        0.136        1.356
   Horizontal (U&V)         9.14        10.00        11.02        0.279        2.795
   Total                    9.14        10.00        11.02        0.279        2.795

                       Min Reynolds     Mean Reynolds    Max Reynolds    Correlation
   Product             Stress (m/s)^2   Stress (m/s)^2   Stress (m/s)^2  Coefficient
   ----------------    --------------   --------------   --------------  -----------
   u'w'                     -0.264            -0.003             0.189        -0.076
   u'v'                     -0.513            -0.004             0.403        -0.052
   v'w'                     -0.227             0.001             0.200         0.022


   Friction Velocity (Ustar)  =      0.054 m/s
   Maximum Instantaneous TKE  =      0.663 (m/s)^2
   Maximum Instantaneous CTKE =      0.289 (m/s)^2


Grid Point Variance Summary:

   Y-coord  -79.05  -74.40  -69.75  -65.10  -60.45  -55.80  -51.15  -46.50  -41.85  -37.20  -32.55  -27.90  -23.25  -18.60  -13.95   -9.30   -4.65    0.00    4.65    9.30   13.95   18.60   23.25   27.90   32.55   37.20   41.85   46.50   51.15   55.80   60.45   65.10   69.75   74.40   79.05

   Height   Standard deviation at grid points for the u component:
   168.40    0.237   0.246   0.233   0.233   0.223   0.238   0.225   0.224   0.225   0.219   0.228   0.245   0.240   0.222   0.242   0.247   0.241   0.237   0.235   0.244   0.237   0.233   0.232   0.243   0.253   0.249   0.253   0.262   0.271   0.260   0.254   0.270   0.274   0.257   0.255
   163.75    0.244   0.244   0.233   0.235   0.234   0.239   0.226   0.230   0.231   0.219   0.224   0.236   0.243   0.256   0.242   0.244   0.226   0.246   0.243   0.244   0.232   0.238   0.236   0.228   0.235   0.228   0.249   0.254   0.272   0.264   0.268   0.271   0.268   0.276   0.275
   159.10    0.254   0.241   0.227   0.233   0.227   0.232   0.237   0.215   0.231   0.224   0.218   0.258   0.274   0.270   0.249   0.251   0.250   0.244   0.256   0.261   0.248   0.249   0.236   0.226   0.237   0.239   0.250   0.248   0.264   0.273   0.271   0.274   0.280   0.272   0.272
   154.45    0.253   0.246   0.246   0.232   0.229   0.229   0.235   0.228   0.221   0.232   0.250   0.245   0.249   0.251   0.261   0.250   0.264   0.256   0.258   0.252   0.251   0.243   0.251   0.232   0.234   0.241   0.247   0.256   0.265   0.274   0.270   0.267   0.266   0.254   0.257
   149.80    0.264   0.248   0.237   0.243   0.236   0.232   0.221   0.218   0.232   0.239   0.255   0.250   0.241   0.249   0.260   0.249   0.261   0.258   0.266   0.270   0.253   0.246   0.251   0.251   0.240   0.231   0.245   0.245   0.245   0.261   0.252   0.245   0.263   0.270   0.254
   145.15    0.260   0.249   0.252   0.244   0.240   0.242   0.223   0.227   0.227   0.248   0.267   0.270   0.272   0.256   0.281   0.258   0.248   0.246   0.267   0.269   0.266   0.246   0.247   0.238   0.244   0.227   0.235   0.235   0.237   0.242   0.232   0.242   0.242   0.254   0.267
   140.50    0.253   0.265   0.234   0.212   0.213   0.226   0.225   0.241   0.245   0.249   0.279   0.280   0.288   0.274   0.273   0.269   0.261   0.244   0.251   0.267   0.265   0.252   0.245   0.254   0.239   0.241   0.235   0.233   0.220   0.228   0.229   0.247   0.246   0.252   0.266
   135.85    0.242   0.252   0.240   0.207   0.206   0.220   0.211   0.231   0.237   0.248   0.272   0.275   0.293   0.265   0.277   0.249   0.264   0.251   0.262   0.270   0.254   0.250   0.241   0.246   0.246   0.249   0.233   0.226   0.224   0.221   0.221   0.231   0.239   0.253   0.254
   131.20    0.267   0.249   0.229   0.226   0.207   0.212   0.222   0.236   0.243   0.265   0.265   0.272   0.277   0.270   0.266   0.265   0.286   0.275   0.285   0.283   0.251   0.260   0.254   0.256   0.246   0.241   0.226   0.229   0.230   0.221   0.232   0.220   0.241   0.245   0.236
   126.55    0.275   0.257   0.241   0.236   0.244   0.226   0.232   0.249   0.257   0.258   0.273   0.292   0.279   0.287   0.270   0.271   0.286   0.297   0.291   0.274   0.261   0.250   0.239   0.230   0.236   0.248   0.234   0.220   0.235   0.241   0.236   0.233   0.227   0.240   0.233
   121.90    0.259   0.272   0.249   0.241   0.245   0.246   0.245   0.264   0.267   0.265   0.267   0.280   0.268   0.270   0.261   0.276   0.280   0.285   0.281   0.277   0.252   0.221   0.232   0.223   0.232   0.228   0.232   0.231   0.236   0.240   0.232   0.231   0.246   0.238   0.242
   117.25    0.270   0.269   0.254   0.271   0.254   0.258   0.281   0.276   0.281   0.269   0.260   0.279   0.279   0.270   0.275   0.281   0.269   0.268   0.257   0.268   0.264   0.253   0.234   0.221   0.233   0.241   0.228   0.231   0.230   0.239   0.244   0.240   0.228   0.230   0.230
   112.60    0.271   0.281   0.270   0.269   0.277   0.281   0.292   0.294   0.275   0.275   0.272   0.285   0.292   0.285   0.258   0.285   0.279   0.274   0.263   0.275   0.277   0.263   0.252   0.226   0.217   0.233   0.240   0.227   0.239   0.247   0.229   0.222   0.228   0.233   0.238
   107.95    0.250   0.262   0.267   0.283   0.319   0.314   0.301   0.310   0.313   0.289   0.295   0.300   0.295   0.290   0.280   0.299   0.288   0.276   0.274   0.288   0.287   0.297   0.266   0.236   0.235   0.238   0.234   0.237   0.243   0.236   0.237   0.226   0.220   0.237   0.228
   103.30    0.253   0.261   0.280   0.304   0.307   0.319   0.297   0.306   0.306   0.313   0.295   0.305   0.307   0.280   0.285   0.296   0.296   0.284   0.277   0.287   0.293   0.292   0.266   0.258   0.254   0.253   0.238   0.249   0.261   0.248   0.246   0.223   0.217   0.234   0.258
    98.65    0.261   0.283   0.257   0.274   0.282   0.282   0.278   0.304   0.309   0.321   0.308   0.305   0.295   0.279   0.289   0.276   0.296   0.281   0.278   0.266   0.277   0.302   0.271   0.264   0.255   0.246   0.238   0.249   0.254   0.276   0.244   0.233   0.233   0.258   0.265
    94.00    0.269   0.263   0.248   0.258   0.258   0.261   0.274   0.309   0.324   0.324   0.307   0.285   0.282   0.277   0.290   0.296   0.299   0.289   0.263   0.271   0.271   0.286   0.255   0.248   0.258   0.256   0.235   0.252   0.261   0.275   0.279   0.263   0.245   0.264   0.255
    89.35    0.252   0.248   0.233   0.242   0.228   0.246   0.251   0.294   0.320   0.320   0.316   0.294   0.308   0.308   0.302   0.321   0.291   0.279   0.275   0.285   0.285   0.267   0.254   0.238   0.253   0.247   0.247   0.267   0.274   0.280   0.281   0.256   0.270   0.265   0.278
    84.70    0.268   0.249   0.257   0.243   0.254   0.252   0.276   0.284   0.298   0.311   0.319   0.308   0.323   0.309   0.323   0.308   0.287   0.287   0.275   0.290   0.265   0.257   0.256   0.250   0.257   0.252   0.266   0.272   0.265   0.275   0.273   0.262   0.271   0.277   0.295
    80.05    0.257   0.254   0.251   0.263   0.260   0.261   0.275   0.288   0.286   0.299   0.308   0.294   0.320   0.316   0.328   0.306   0.300   0.290   0.294   0.288   0.267   0.254   0.260   0.254   0.255   0.275   0.276   0.275   0.272   0.258   0.273   0.269   0.288   0.296   0.295
    75.40    0.274   0.266   0.250   0.249   0.255   0.269   0.276   0.277   0.263   0.287   0.299   0.304   0.311   0.294   0.296   0.315   0.302   0.294   0.288   0.274   0.265   0.264   0.255   0.265   0.280   0.272   0.268   0.267   0.270   0.273   0.272   0.276   0.291   0.291   0.292
    70.75    0.277   0.278   0.258   0.243   0.267   0.265   0.261   0.263   0.278   0.288   0.297   0.309   0.294   0.301   0.294   0.295   0.309   0.298   0.297   0.281   0.274   0.263   0.268   0.267   0.281   0.296   0.279   0.262   0.276   0.293   0.266   0.269   0.290   0.285   0.290
    66.10    0.283   0.273   0.253   0.240   0.259   0.262   0.244   0.271   0.291   0.291   0.306   0.308   0.308   0.298   0.303   0.300   0.290   0.304   0.306   0.295   0.271   0.273   0.271   0.283   0.273   0.294   0.283   0.263   0.273   0.298   0.278   0.282   0.288   0.301   0.294
    61.45    0.286   0.248   0.233   0.238   0.255   0.248   0.260   0.274   0.283   0.299   0.315   0.304   0.310   0.316   0.322   0.324   0.300   0.314   0.310   0.313   0.297   0.280   0.269   0.278   0.249   0.275   0.285   0.297   0.281   0.285   0.286   0.279   0.305   0.307   0.288
    56.80    0.276   0.244   0.241   0.229   0.233   0.259   0.263   0.288   0.290   0.289   0.308   0.300   0.296   0.305   0.309   0.318   0.322   0.317   0.308   0.290   0.280   0.267   0.265   0.275   0.267   0.288   0.292   0.299   0.276   0.280   0.281   0.302   0.299   0.292   0.291
    52.15    0.255   0.244   0.237   0.254   0.243   0.251   0.255   0.265   0.274   0.278   0.294   0.287   0.312   0.295   0.301   0.308   0.294   0.285   0.281   0.267   0.277   0.271   0.282   0.280   0.288   0.296   0.301   0.306   0.294   0.297   0.305   0.295   0.309   0.298   0.310
    47.50    0.255   0.251   0.241   0.241   0.256   0.245   0.248   0.248   0.272   0.277   0.291   0.289   0.292   0.302   0.308   0.282   0.274   0.282   0.275   0.275   0.290   0.283   0.261   0.277   0.301   0.292   0.311   0.311   0.309   0.302   0.305   0.298   0.295   0.313   0.322
    42.85    0.257   0.254   0.247   0.247   0.248   0.259   0.245   0.242   0.259   0.269   0.284   0.294   0.290   0.288   0.282   0.275   0.258   0.253   0.249   0.267   0.273   0.266   0.262   0.263   0.285   0.290   0.300   0.301   0.301   0.283   0.302   0.309   0.288   0.310   0.308
    38.20    0.254   0.251   0.251   0.256   0.255   0.254   0.234   0.246   0.240   0.245   0.255   0.264   0.276   0.294   0.271   0.282   0.269   0.262   0.261   0.267   0.277   0.272   0.275   0.272   0.290   0.276   0.303   0.301   0.281   0.295   0.291   0.303   0.289   0.305   0.301
    33.55    0.254   0.247   0.248   0.246   0.259   0.263   0.265   0.250   0.239   0.240   0.245   0.245   0.251   0.263   0.267   0.281   0.283   0.276   0.281   0.275   0.288   0.280   0.277   0.279   0.294   0.291   0.306   0.294   0.283   0.287   0.273   0.274   0.282   0.309   0.305
    28.90    0.255   0.250   0.246   0.244   0.243   0.251   0.260   0.242   0.232   0.253   0.243   0.233   0.232   0.250   0.268   0.285   0.294   0.283   0.280   0.260   0.263   0.264   0.252   0.265   0.277   0.288   0.289   0.291   0.274   0.277   0.265   0.275   0.279   0.309   0.297
    24.25    0.259   0.256   0.254   0.250   0.237   0.243   0.228   0.233   0.245   0.242   0.249   0.232   0.237   0.239   0.253   0.277   0.299   0.289   0.266   0.261   0.263   0.237   0.245   0.257   0.265   0.271   0.277   0.279   0.254   0.269   0.268   0.279   0.284   0.297   0.305
    19.60    0.268   0.250   0.238   0.250   0.254   0.232   0.238   0.220   0.225   0.239   0.245   0.229   0.237   0.237   0.245   0.251   0.289   0.300   0.278   0.260   0.252   0.236   0.247   0.271   0.257   0.288   0.294   0.277   0.283   0.273   0.275   0.290   0.301   0.290   0.306
    14.95    0.257   0.237   0.245   0.252   0.261   0.238   0.219   0.215   0.218   0.235   0.233   0.225   0.242   0.227   0.257   0.267   0.295   0.281   0.270   0.255   0.241   0.227   0.239   0.264   0.260   0.276   0.289   0.289   0.281   0.282   0.280   0.270   0.292   0.306   0.289
    10.30    0.253   0.241   0.244   0.257   0.266   0.261   0.237   0.237   0.238   0.251   0.234   0.228   0.241   0.245   0.254   0.277   0.298   0.274   0.286   0.268   0.246   0.242   0.234   0.260   0.270   0.272   0.285   0.284   0.283   0.281   0.288   0.280   0.285   0.311   0.308
     5.65    0.266   0.253   0.252   0.262   0.259   0.269   0.249   0.238   0.246   0.257   0.244   0.253   0.242   0.259   0.265   0.276   0.293   0.301   0.273   0.259   0.255   0.257   0.269   0.249   0.268   0.262   0.272   0.278   0.275   0.273   0.283   0.286   0.280   0.293   0.294
     1.00    0.260   0.249   0.247   0.261   0.264   0.275   0.250   0.234   0.219   0.235   0.263   0.257   0.258   0.264   0.266   0.272   0.286   0.305   0.275   0.265   0.254   0.251   0.239   0.261   0.257   0.268   0.284   0.266   0.264   0.263   0.276   0.277   0.299   0.295   0.284

   Height   Standard deviation at grid points for the v component:
   168.40    0.267   0.278   0.290   0.295   0.295   0.270   0.266   0.297   0.284   0.287   0.301   0.311   0.304   0.292   0.286   0.276   0.282   0.285   0.280   0.253   0.262   0.246   0.245   0.257   0.260   0.263   0.296   0.299   0.305   0.317   0.307   0.303   0.324   0.317   0.302
   163.75    0.284   0.279   0.292   0.297   0.280   0.282   0.271   0.285   0.298   0.287   0.303   0.291   0.290   0.285   0.289   0.283   0.282   0.278   0.273   0.268   0.256   0.258   0.251   0.243   0.267   0.267   0.286   0.311   0.314   0.319   0.311   0.317   0.326   0.316   0.328
   159.10    0.294   0.294   0.284   0.272   0.282   0.268   0.270   0.283   0.294   0.293   0.291   0.289   0.295   0.292   0.292   0.297   0.291   0.274   0.286   0.275   0.269   0.263   0.273   0.270   0.265   0.284   0.294   0.306   0.312   0.317   0.317   0.320   0.326   0.329   0.339
   154.45    0.286   0.293   0.289   0.287   0.269   0.274   0.263   0.283   0.285   0.298   0.285   0.293   0.296   0.292   0.289   0.284   0.280   0.268   0.281   0.285   0.275   0.280   0.268   0.271   0.279   0.280   0.299   0.292   0.302   0.317   0.314   0.325   0.329   0.308   0.337
   149.80    0.280   0.274   0.277   0.272   0.264   0.275   0.278   0.278   0.290   0.293   0.292   0.295   0.298   0.290   0.302   0.289   0.271   0.279   0.293   0.272   0.274   0.269   0.261   0.269   0.287   0.284   0.289   0.286   0.294   0.313   0.315   0.310   0.320   0.324   0.332
   145.15    0.263   0.271   0.277   0.265   0.262   0.265   0.270   0.270   0.279   0.287   0.284   0.285   0.288   0.307   0.300   0.287   0.290   0.294   0.288   0.282   0.275   0.259   0.273   0.272   0.275   0.287   0.273   0.283   0.285   0.301   0.300   0.300   0.320   0.326   0.313
   140.50    0.264   0.270   0.274   0.273   0.263   0.275   0.267   0.283   0.269   0.271   0.262   0.277   0.289   0.299   0.308   0.300   0.303   0.306   0.295   0.272   0.286   0.272   0.271   0.272   0.273   0.296   0.294   0.287   0.294   0.293   0.308   0.308   0.321   0.315   0.308
   135.85    0.270   0.269   0.271   0.258   0.268   0.257   0.271   0.273   0.267   0.253   0.270   0.275   0.290   0.295   0.300   0.311   0.298   0.301   0.293   0.287   0.268   0.280   0.293   0.269   0.273   0.284   0.305   0.311   0.303   0.310   0.316   0.296   0.299   0.311   0.314
   131.20    0.274   0.269   0.244   0.255   0.271   0.260   0.260   0.270   0.258   0.277   0.286   0.288   0.292   0.300   0.304   0.309   0.308   0.297   0.265   0.271   0.292   0.284   0.279   0.283   0.290   0.297   0.292   0.305   0.301   0.306   0.312   0.300   0.300   0.299   0.306
   126.55    0.286   0.282   0.260   0.245   0.263   0.269   0.253   0.262   0.258   0.272   0.283   0.296   0.290   0.279   0.284   0.292   0.284   0.293   0.262   0.265   0.285   0.288   0.267   0.280   0.301   0.288   0.288   0.296   0.298   0.314   0.327   0.305   0.314   0.302   0.314
   121.90    0.282   0.284   0.275   0.264   0.272   0.269   0.261   0.256   0.257   0.277   0.271   0.285   0.285   0.275   0.273   0.282   0.290   0.290   0.270   0.263   0.272   0.275   0.275   0.297   0.294   0.310   0.299   0.297   0.296   0.302   0.307   0.304   0.305   0.297   0.306
   117.25    0.281   0.273   0.271   0.253   0.265   0.265   0.257   0.265   0.279   0.276   0.272   0.277   0.285   0.286   0.289   0.267   0.288   0.287   0.257   0.262   0.260   0.259   0.267   0.294   0.295   0.306   0.288   0.284   0.290   0.308   0.311   0.292   0.283   0.285   0.286
   112.60    0.284   0.271   0.257   0.252   0.252   0.267   0.275   0.272   0.278   0.281   0.283   0.290   0.289   0.294   0.296   0.267   0.283   0.274   0.248   0.250   0.259   0.275   0.291   0.301   0.320   0.294   0.292   0.287   0.297   0.295   0.302   0.282   0.282   0.289   0.272
   107.95    0.271   0.263   0.263   0.244   0.243   0.259   0.266   0.269   0.269   0.287   0.299   0.296   0.304   0.305   0.295   0.287   0.276   0.271   0.260   0.251   0.272   0.287   0.278   0.293   0.307   0.283   0.286   0.299   0.288   0.297   0.276   0.282   0.263   0.279   0.288
   103.30    0.263   0.253   0.261   0.253   0.252   0.269   0.278   0.272   0.276   0.291   0.288   0.284   0.306   0.296   0.295   0.291   0.284   0.262   0.263   0.270   0.282   0.279   0.274   0.288   0.290   0.296   0.288   0.299   0.286   0.287   0.267   0.276   0.269   0.292   0.291
    98.65    0.247   0.249   0.253   0.266   0.269   0.275   0.270   0.270   0.277   0.288   0.274   0.293   0.302   0.286   0.276   0.285   0.268   0.249   0.239   0.255   0.269   0.281   0.290   0.279   0.267   0.275   0.279   0.277   0.278   0.275   0.284   0.281   0.288   0.311   0.290
    94.00    0.242   0.242   0.268   0.271   0.270   0.285   0.276   0.276   0.272   0.275   0.272   0.291   0.308   0.301   0.280   0.260   0.282   0.259   0.249   0.267   0.273   0.283   0.285   0.276   0.269   0.263   0.257   0.263   0.281   0.294   0.293   0.280   0.287   0.292   0.297
    89.35    0.249   0.247   0.267   0.270   0.269   0.281   0.277   0.274   0.274   0.275   0.292   0.296   0.294   0.288   0.270   0.263   0.271   0.274   0.260   0.277   0.281   0.282   0.281   0.276   0.271   0.263   0.268   0.271   0.289   0.291   0.309   0.294   0.306   0.301   0.295
    84.70    0.243   0.249   0.257   0.273   0.276   0.285   0.288   0.281   0.284   0.273   0.286   0.305   0.296   0.289   0.259   0.268   0.259   0.260   0.262   0.275   0.282   0.280   0.274   0.272   0.268   0.271   0.272   0.280   0.295   0.300   0.303   0.301   0.291   0.306   0.297
    80.05    0.232   0.238   0.263   0.287   0.276   0.273   0.284   0.266   0.280   0.277   0.271   0.285   0.288   0.277   0.268   0.247   0.260   0.256   0.254   0.260   0.275   0.277   0.277   0.256   0.266   0.285   0.274   0.279   0.286   0.289   0.303   0.306   0.293   0.278   0.282
    75.40    0.226   0.244   0.260   0.282   0.281   0.260   0.272   0.269   0.284   0.271   0.295   0.282   0.288   0.273   0.260   0.261   0.254   0.259   0.264   0.251   0.255   0.251   0.266   0.275   0.254   0.260   0.279   0.275   0.270   0.281   0.286   0.296   0.291   0.289   0.272
    70.75    0.249   0.248   0.266   0.270   0.268   0.270   0.271   0.273   0.283   0.286   0.282   0.289   0.281   0.283   0.278   0.265   0.260   0.255   0.262   0.257   0.248   0.251   0.265   0.255   0.265   0.267   0.262   0.281   0.280   0.292   0.285   0.300   0.294   0.263   0.271
    66.10    0.247   0.258   0.259   0.260   0.265   0.268   0.257   0.263   0.267   0.268   0.279   0.278   0.277   0.270   0.260   0.268   0.250   0.254   0.271   0.262   0.261   0.255   0.266   0.256   0.266   0.274   0.270   0.269   0.278   0.280   0.281   0.285   0.271   0.263   0.255
    61.45    0.255   0.251   0.250   0.254   0.250   0.260   0.249   0.267   0.268   0.262   0.267   0.272   0.264   0.264   0.270   0.260   0.264   0.255   0.266   0.267   0.256   0.262   0.258   0.265   0.268   0.285   0.280   0.262   0.265   0.259   0.275   0.275   0.268   0.270   0.247
    56.80    0.248   0.262   0.256   0.263   0.267   0.268   0.257   0.275   0.277   0.278   0.276   0.274   0.252   0.236   0.250   0.256   0.251   0.252   0.256   0.255   0.262   0.256   0.253   0.266   0.262   0.257   0.284   0.261   0.266   0.261   0.280   0.272   0.255   0.266   0.248
    52.15    0.240   0.250   0.249   0.253   0.259   0.269   0.252   0.265   0.278   0.282   0.273   0.275   0.256   0.257   0.247   0.259   0.248   0.246   0.240   0.256   0.244   0.246   0.259   0.274   0.268   0.278   0.273   0.278   0.277   0.272   0.272   0.287   0.283   0.259   0.235
    47.50    0.252   0.253   0.249   0.248   0.252   0.256   0.265   0.274   0.265   0.274   0.270   0.265   0.257   0.256   0.249   0.258   0.256   0.247   0.257   0.255   0.252   0.263   0.266   0.274   0.280   0.273   0.268   0.269   0.258   0.252   0.264   0.283   0.284   0.253   0.242
    42.85    0.248   0.236   0.237   0.236   0.247   0.255   0.259   0.262   0.266   0.262   0.261   0.253   0.251   0.233   0.253   0.263   0.254   0.255   0.254   0.252   0.242   0.268   0.269   0.273   0.289   0.278   0.268   0.263   0.262   0.275   0.284   0.285   0.259   0.252   0.241
    38.20    0.243   0.229   0.220   0.236   0.245   0.236   0.261   0.267   0.252   0.252   0.248   0.239   0.237   0.234   0.247   0.258   0.268   0.262   0.256   0.236   0.246   0.248   0.254   0.265   0.282   0.269   0.277   0.272   0.277   0.265   0.287   0.284   0.276   0.258   0.234
    33.55    0.226   0.218   0.219   0.234   0.245   0.235   0.253   0.258   0.260   0.244   0.239   0.240   0.241   0.245   0.257   0.253   0.262   0.267   0.243   0.247   0.243   0.234   0.248   0.270   0.270   0.265   0.276   0.279   0.272   0.258   0.279   0.283   0.281   0.257   0.240
    28.90    0.215   0.222   0.240   0.241   0.236   0.246   0.244   0.246   0.243   0.240   0.241   0.238   0.233   0.258   0.253   0.247   0.240   0.260   0.256   0.238   0.232   0.222   0.248   0.255   0.264   0.282   0.271   0.264   0.259   0.257   0.273   0.270   0.273   0.263   0.250
    24.25    0.244   0.231   0.238   0.229   0.223   0.231   0.217   0.231   0.240   0.243   0.240   0.243   0.251   0.262   0.265   0.256   0.249   0.263   0.249   0.258   0.236   0.229   0.241   0.248   0.263   0.272   0.273   0.254   0.262   0.257   0.252   0.256   0.274   0.262   0.256
    19.60    0.260   0.242   0.226   0.217   0.228   0.222   0.228   0.226   0.235   0.250   0.252   0.259   0.270   0.269   0.269   0.246   0.251   0.253   0.231   0.231   0.229   0.229   0.236   0.251   0.268   0.276   0.275   0.259   0.252   0.254   0.257   0.263   0.261   0.270   0.264
    14.95    0.259   0.245   0.218   0.217   0.220   0.212   0.221   0.234   0.244   0.241   0.246   0.254   0.273   0.280   0.270   0.254   0.252   0.234   0.246   0.228   0.231   0.231   0.244   0.253   0.270   0.285   0.271   0.255   0.260   0.253   0.261   0.263   0.278   0.279   0.271
    10.30    0.253   0.235   0.220   0.215   0.218   0.222   0.219   0.236   0.248   0.240   0.245   0.246   0.264   0.277   0.269   0.259   0.259   0.259   0.242   0.232   0.243   0.261   0.272   0.258   0.285   0.288   0.263   0.248   0.247   0.243   0.259   0.275   0.279   0.287   0.298
     5.65    0.249   0.241   0.218   0.215   0.220   0.220   0.228   0.237   0.247   0.255   0.249   0.271   0.273   0.284   0.287   0.262   0.264   0.273   0.251   0.251   0.251   0.258   0.270   0.266   0.278   0.293   0.275   0.259   0.258   0.263   0.252   0.277   0.277   0.288   0.284
     1.00    0.253   0.252   0.225   0.220   0.224   0.230   0.227   0.239   0.238   0.243   0.243   0.255   0.271   0.286   0.283   0.276   0.272   0.263   0.264   0.269   0.267   0.264   0.264   0.264   0.275   0.287   0.296   0.277   0.274   0.278   0.289   0.291   0.288   0.281   0.289

   Height   Standard deviation at grid points for the w component:
   168.40    0.145   0.143   0.147   0.149   0.146   0.144   0.149   0.144   0.142   0.140   0.144   0.140   0.141   0.142   0.140   0.140   0.134   0.137   0.135   0.137   0.134   0.137   0.135   0.141   0.139   0.139   0.138   0.140   0.139   0.141   0.145   0.143   0.149   0.150   0.145
   163.75    0.145   0.146   0.144   0.143   0.145   0.144   0.147   0.143   0.147   0.144   0.145   0.138   0.139   0.145   0.137   0.136   0.141   0.136   0.136   0.139   0.138   0.142   0.139   0.142   0.143   0.141   0.134   0.140   0.143   0.138   0.141   0.141   0.149   0.151   0.141
   159.10    0.141   0.141   0.145   0.144   0.142   0.144   0.149   0.142   0.140   0.142   0.142   0.142   0.142   0.140   0.141   0.137   0.135   0.133   0.137   0.136   0.138   0.138   0.136   0.142   0.140   0.137   0.142   0.145   0.144   0.140   0.137   0.142   0.147   0.145   0.143
   154.45    0.139   0.139   0.139   0.138   0.138   0.142   0.141   0.143   0.137   0.141   0.142   0.139   0.139   0.138   0.142   0.139   0.136   0.135   0.136   0.138   0.137   0.138   0.138   0.141   0.141   0.136   0.139   0.139   0.137   0.141   0.142   0.140   0.145   0.139   0.140
   149.80    0.137   0.138   0.139   0.136   0.133   0.136   0.138   0.138   0.138   0.138   0.135   0.136   0.139   0.135   0.136   0.135   0.137   0.135   0.131   0.137   0.137   0.135   0.137   0.139   0.136   0.139   0.139   0.138   0.139   0.141   0.138   0.141   0.140   0.138   0.142
   145.15    0.137   0.135   0.141   0.141   0.140   0.143   0.140   0.138   0.137   0.138   0.140   0.136   0.139   0.140   0.136   0.139   0.141   0.137   0.136   0.134   0.132   0.133   0.135   0.134   0.136   0.140   0.140   0.138   0.138   0.135   0.142   0.139   0.142   0.140   0.141
   140.50    0.136   0.138   0.135   0.136   0.138   0.140   0.138   0.136   0.137   0.139   0.138   0.135   0.136   0.139   0.140   0.139   0.140   0.140   0.142   0.139   0.137   0.133   0.134   0.140   0.140   0.141   0.142   0.140   0.140   0.141   0.141   0.136   0.139   0.139   0.145
   135.85    0.131   0.137   0.136   0.135   0.132   0.139   0.138   0.132   0.134   0.136   0.138   0.139   0.136   0.137   0.141   0.142   0.138   0.139   0.133   0.133   0.134   0.136   0.135   0.141   0.139   0.136   0.138   0.139   0.141   0.141   0.142   0.144   0.143   0.143   0.141
   131.20    0.135   0.136   0.137   0.136   0.131   0.135   0.132   0.134   0.129   0.136   0.135   0.136   0.136   0.136   0.139   0.139   0.137   0.139   0.143   0.137   0.134   0.136   0.136   0.136   0.137   0.136   0.131   0.134   0.139   0.144   0.146   0.146   0.142   0.140   0.141
   126.55    0.132   0.136   0.133   0.132   0.129   0.131   0.132   0.133   0.135   0.138   0.139   0.137   0.134   0.139   0.143   0.137   0.136   0.142   0.142   0.139   0.136   0.136   0.134   0.140   0.137   0.136   0.136   0.136   0.139   0.141   0.143   0.146   0.146   0.142   0.139
   121.90    0.135   0.138   0.139   0.137   0.131   0.133   0.133   0.134   0.141   0.140   0.141   0.137   0.140   0.134   0.139   0.138   0.138   0.136   0.136   0.135   0.133   0.129   0.133   0.135   0.139   0.140   0.138   0.137   0.137   0.139   0.141   0.140   0.143   0.140   0.139
   117.25    0.139   0.138   0.136   0.135   0.134   0.130   0.133   0.130   0.138   0.138   0.138   0.138   0.138   0.138   0.135   0.134   0.130   0.128   0.134   0.134   0.136   0.136   0.137   0.138   0.136   0.138   0.136   0.137   0.136   0.136   0.139   0.141   0.139   0.134   0.137
   112.60    0.137   0.134   0.135   0.131   0.133   0.133   0.131   0.130   0.133   0.137   0.135   0.137   0.140   0.139   0.137   0.140   0.132   0.133   0.133   0.133   0.135   0.133   0.137   0.138   0.136   0.138   0.137   0.134   0.131   0.135   0.132   0.137   0.138   0.137   0.136
   107.95    0.134   0.138   0.137   0.135   0.133   0.133   0.132   0.132   0.134   0.133   0.140   0.144   0.137   0.135   0.134   0.133   0.135   0.133   0.130   0.134   0.134   0.135   0.136   0.132   0.136   0.134   0.136   0.134   0.135   0.136   0.135   0.132   0.136   0.134   0.137
   103.30    0.132   0.135   0.133   0.131   0.129   0.129   0.130   0.134   0.134   0.139   0.142   0.141   0.140   0.135   0.138   0.141   0.135   0.131   0.131   0.137   0.131   0.129   0.131   0.133   0.134   0.136   0.133   0.141   0.136   0.138   0.135   0.133   0.135   0.132   0.136
    98.65    0.134   0.132   0.127   0.130   0.131   0.134   0.127   0.131   0.131   0.141   0.141   0.139   0.136   0.135   0.138   0.140   0.140   0.135   0.133   0.135   0.137   0.134   0.130   0.131   0.132   0.137   0.135   0.137   0.136   0.138   0.131   0.132   0.136   0.129   0.132
    94.00    0.132   0.134   0.130   0.130   0.133   0.129   0.125   0.126   0.127   0.135   0.140   0.136   0.131   0.134   0.134   0.137   0.137   0.136   0.134   0.135   0.139   0.135   0.134   0.133   0.135   0.133   0.137   0.134   0.132   0.130   0.126   0.131   0.129   0.132   0.135
    89.35    0.136   0.137   0.133   0.132   0.127   0.127   0.128   0.126   0.129   0.131   0.135   0.131   0.132   0.132   0.134   0.135   0.135   0.136   0.139   0.143   0.136   0.130   0.132   0.136   0.137   0.132   0.133   0.132   0.132   0.130   0.129   0.132   0.132   0.134   0.131
    84.70    0.133   0.132   0.135   0.132   0.127   0.130   0.132   0.129   0.129   0.130   0.131   0.131   0.133   0.132   0.132   0.134   0.136   0.137   0.136   0.134   0.134   0.128   0.130   0.131   0.135   0.135   0.135   0.129   0.128   0.128   0.134   0.135   0.132   0.128   0.132
    80.05    0.137   0.137   0.128   0.130   0.127   0.126   0.126   0.132   0.129   0.129   0.125   0.126   0.130   0.131   0.133   0.133   0.133   0.136   0.138   0.134   0.137   0.131   0.132   0.131   0.132   0.133   0.129   0.129   0.126   0.128   0.133   0.135   0.133   0.135   0.137
    75.40    0.132   0.126   0.129   0.124   0.128   0.128   0.125   0.127   0.133   0.134   0.130   0.133   0.133   0.132   0.137   0.137   0.135   0.138   0.137   0.134   0.133   0.129   0.128   0.137   0.130   0.131   0.132   0.131   0.126   0.132   0.131   0.129   0.132   0.133   0.134
    70.75    0.128   0.128   0.133   0.123   0.124   0.126   0.124   0.132   0.133   0.132   0.130   0.129   0.130   0.131   0.138   0.139   0.139   0.139   0.140   0.133   0.129   0.127   0.128   0.132   0.134   0.131   0.137   0.134   0.126   0.129   0.132   0.133   0.128   0.130   0.132
    66.10    0.134   0.134   0.131   0.130   0.131   0.133   0.127   0.135   0.135   0.135   0.129   0.128   0.125   0.129   0.135   0.138   0.142   0.140   0.138   0.135   0.133   0.131   0.126   0.132   0.134   0.136   0.133   0.127   0.129   0.131   0.132   0.128   0.124   0.131   0.134
    61.45    0.129   0.131   0.129   0.131   0.129   0.130   0.130   0.133   0.133   0.133   0.128   0.129   0.128   0.130   0.135   0.139   0.142   0.143   0.141   0.140   0.132   0.131   0.134   0.137   0.136   0.138   0.135   0.131   0.130   0.133   0.133   0.129   0.129   0.130   0.133
    56.80    0.129   0.130   0.133   0.133   0.129   0.126   0.130   0.132   0.129   0.130   0.132   0.127   0.129   0.129   0.133   0.138   0.143   0.142   0.144   0.144   0.137   0.133   0.137   0.141   0.140   0.136   0.139   0.134   0.133   0.134   0.137   0.134   0.135   0.132   0.128
    52.15    0.132   0.129   0.131   0.135   0.133   0.128   0.131   0.126   0.132   0.133   0.129   0.128   0.125   0.132   0.137   0.140   0.142   0.140   0.142   0.141   0.135   0.137   0.137   0.144   0.144   0.137   0.139   0.133   0.132   0.134   0.130   0.131   0.129   0.132   0.129
    47.50    0.129   0.133   0.130   0.131   0.128   0.132   0.128   0.127   0.130   0.129   0.130   0.132   0.125   0.130   0.134   0.137   0.137   0.136   0.141   0.136   0.140   0.137   0.141   0.140   0.144   0.134   0.138   0.132   0.126   0.127   0.130   0.131   0.130   0.132   0.129
    42.85    0.134   0.129   0.129   0.130   0.129   0.130   0.133   0.129   0.132   0.131   0.130   0.135   0.133   0.131   0.131   0.133   0.131   0.137   0.137   0.138   0.134   0.141   0.143   0.140   0.140   0.138   0.131   0.131   0.127   0.128   0.127   0.130   0.133   0.135   0.133
    38.20    0.133   0.133   0.132   0.134   0.133   0.134   0.134   0.125   0.130   0.132   0.137   0.137   0.134   0.132   0.128   0.130   0.134   0.135   0.134   0.141   0.138   0.136   0.136   0.139   0.142   0.136   0.133   0.132   0.133   0.129   0.132   0.133   0.131   0.132   0.135
    33.55    0.131   0.129   0.131   0.132   0.133   0.131   0.129   0.125   0.130   0.136   0.130   0.131   0.130   0.125   0.129   0.132   0.127   0.134   0.134   0.135   0.135   0.135   0.137   0.140   0.142   0.138   0.139   0.136   0.136   0.135   0.140   0.132   0.133   0.135   0.137
    28.90    0.128   0.130   0.130   0.132   0.132   0.129   0.128   0.126   0.128   0.136   0.134   0.135   0.132   0.129   0.132   0.129   0.133   0.133   0.133   0.133   0.136   0.132   0.138   0.140   0.137   0.136   0.134   0.132   0.135   0.135   0.137   0.134   0.136   0.135   0.139
    24.25    0.131   0.134   0.131   0.130   0.134   0.130   0.126   0.127   0.131   0.134   0.136   0.129   0.132   0.134   0.136   0.135   0.133   0.133   0.139   0.137   0.135   0.132   0.133   0.134   0.135   0.132   0.131   0.132   0.133   0.131   0.136   0.138   0.136   0.141   0.137
    19.60    0.131   0.130   0.127   0.130   0.129   0.133   0.127   0.128   0.134   0.133   0.133   0.129   0.131   0.137   0.133   0.133   0.132   0.134   0.131   0.134   0.135   0.136   0.139   0.130   0.138   0.134   0.134   0.134   0.136   0.135   0.138   0.142   0.145   0.146   0.147
    14.95    0.131   0.132   0.133   0.132   0.128   0.132   0.130   0.127   0.129   0.131   0.133   0.128   0.129   0.131   0.135   0.132   0.129   0.134   0.133   0.136   0.135   0.134   0.132   0.138   0.135   0.134   0.133   0.136   0.133   0.137   0.142   0.141   0.139   0.145   0.145
    10.30    0.136   0.140   0.136   0.135   0.135   0.130   0.133   0.130   0.130   0.132   0.133   0.127   0.129   0.132   0.133   0.133   0.130   0.129   0.135   0.135   0.137   0.133   0.137   0.133   0.134   0.134   0.136   0.135   0.141   0.141   0.138   0.138   0.137   0.140   0.144
     5.65    0.139   0.138   0.137   0.134   0.137   0.129   0.135   0.127   0.126   0.132   0.137   0.134   0.134   0.127   0.129   0.131   0.134   0.132   0.130   0.138   0.138   0.139   0.134   0.133   0.133   0.135   0.137   0.138   0.141   0.138   0.140   0.136   0.133   0.138   0.144
     1.00    0.134   0.139   0.136   0.134   0.135   0.137   0.133   0.134   0.132   0.133   0.135   0.134   0.133   0.130   0.130   0.131   0.131   0.135   0.133   0.136   0.138   0.139   0.134   0.130   0.130   0.138   0.138   0.137   0.139   0.140   0.138   0.139   0.138   0.138   0.140

   Mean standard deviation across all grid points:
      u component:    0.265 m/s
      v component:    0.271 m/s
      w component:    0.135 m/s


U-component (X) statistics from the interpolated hub point:

   Mean =   9.9913 m/s
   TI   =   2.7959 %


Processing complete.  6169.7 CPU seconds used.
