
This summary file was generated by TurbSim (from OpenFAST-v3.5.3) on 20-Apr-2025 at 11:53:48.


Runtime Options:

1333634118  Random seed #1
    RANLUX  Type of random number generator
         F  Output binary HH turbulence parameters?
         F  Output formatted turbulence parameters?
         F  Output AeroDyn HH files?
         T  Output AeroDyn FF files?
         F  Output BLADED FF files?
         F  Output tower data?
         F  Output HAWC FF files?
         F  Output formatted FF files?
         T  Output coherent turbulence time step file?
 0 -  NONE  IEC turbulence models scaled to exact specified standard deviation


Turbine/Model Specifications:

        37  Vertical grid-point matrix dimension
        35  Horizontal grid-point matrix dimension
     0.250  Time step [seconds]
   900.000  Analysis time [seconds]
   900.000  Usable output time [seconds]
    89.350  Hub height [m]
   167.400  Grid height [m]
   158.100  Grid width [m]
     0.000  Vertical flow angle [degrees]
     0.000  Horizontal flow angle [degrees]


Meteorological Boundary Conditions:

    TIMESR  User-input time series spectral model
       N/A  IEC standard
       N/A  IEC turbulence characteristic
       N/A  IEC turbulence type
       N/A  IEC Extreme Turbulence Model (ETM) "c" parameter [m/s]
       PL   Wind profile type
    90.000  Reference height [m]
    10.000  Reference wind speed [m/s]
       N/A  Jet height [m]
     0.120  Power law exponent
     0.030  Surface roughness length [m]


Non-IEC Meteorological Boundary Conditions:

    45.000  Site latitude [degrees]
     0.050  Gradient Richardson number
     0.480  Friction or shear velocity [m/s]
       N/A  Mixing layer depth [m]
       N/A  Mean hub u'w' Reynolds stress
       N/A  Mean hub u'v' Reynolds stress
       N/A  Mean hub v'w' Reynolds stress


Spatial Coherence Models:

       IEC  u-component coherence model
       IEC  v-component coherence model
       IEC  w-component coherence model
(   12.000, 0.353E-03)  u-component coherence parameters
(   12.000, 0.353E-03)  v-component coherence parameters
(   12.000, 0.353E-03)  w-component coherence parameters
       N/A  Coherence exponent


Coherent Turbulence Scaling Parameters:

.\EventData
            Name of the path containing the coherent turbulence data files
       dns  Type of coherent turbulence data files
     1.000  Disturbance scale (ratio of wave height to rotor diameter)
     0.500  Fractional location of tower centerline from right
     0.500  Fractional location of hub height from the bottom of the dataset
    30.000  Minimum start time for coherent structures [seconds]


Profiles from User-Defined Time-Series Input:

  Height   Wind Speed   Horizontal Angle   Vertical Angle
   (m)        (m/s)          (deg)              (deg)    
  ------   ----------   ----------------   --------------
   94.00      10.00          -0.63               -0.00


You have requested that the following file(s) be generated:

   /kfs3/scratch/agupta/Projects/RL_Incubator/FinalRuns_Veer/Seed4/./FFSim_Seed4/Cond00_v10.0_PL0.12_TI3.0/Case3_wdirp06/Seed_4/TurbSim/HighT18.bts (AeroDyn/TurbSim full-field wind file)


Turbulence Simulation Scaling Parameter Summary:

   Turbulence model used                            =  User-input time series
   Gradient Richardson number                       =    0.050
   Monin-Obukhov (M-O) z/L parameter                =    0.067
   Monin-Obukhov (M-O) length scale                 = 1340.250 m
   Mean wind speed at hub height                    =    9.991 m/s

   Wind profile type                                =  Power law
   Power law exponent                               =    0.120
   Mean shear across rotor disk                     =    0.019 (m/s)/m
   Assumed rotor diameter                           =  158.100 m
   Surface roughness length                         =    0.030 m

   Nyquist frequency of turbulent wind field        =    2.000 Hz

   Number of time steps in the FFT                  =     3600
   Number of time steps output                      =     3600
   Number of points simulated                       =     1296


Mean Flow Angles:

   Vertical   =   0.0 degrees
   Horizontal =   0.0 degrees

Mean Wind Speed Profile:

   Height    Wind Speed   Horizontal Angle  Vertical Angle  U-comp (X)   V-comp (Y)   W-comp (Z)
     (m)        (m/s)         (degrees)       (degrees)       (m/s)        (m/s)        (m/s)   
   ------    ----------   ----------------  --------------  ----------   ----------   ----------
    168.4       10.78            0.00            0.00         10.78         0.00         0.00
    163.7       10.74            0.00            0.00         10.74         0.00         0.00
    159.1       10.71            0.00            0.00         10.71         0.00         0.00
    154.4       10.67            0.00            0.00         10.67         0.00         0.00
    149.8       10.63            0.00            0.00         10.63         0.00         0.00
    145.1       10.59            0.00            0.00         10.59         0.00         0.00
    140.5       10.55            0.00            0.00         10.55         0.00         0.00
    135.8       10.51            0.00            0.00         10.51         0.00         0.00
    131.2       10.46            0.00            0.00         10.46         0.00         0.00
    126.5       10.42            0.00            0.00         10.42         0.00         0.00
    121.9       10.37            0.00            0.00         10.37         0.00         0.00
    117.2       10.32            0.00            0.00         10.32         0.00         0.00
    112.6       10.27            0.00            0.00         10.27         0.00         0.00
    107.9       10.22            0.00            0.00         10.22         0.00         0.00
    103.3       10.17            0.00            0.00         10.17         0.00         0.00
     98.6       10.11            0.00            0.00         10.11         0.00         0.00
     94.0       10.05            0.00            0.00         10.05         0.00         0.00
     89.3        9.99            0.00            0.00          9.99         0.00         0.00
     84.7        9.93            0.00            0.00          9.93         0.00         0.00
     80.0        9.86            0.00            0.00          9.86         0.00         0.00
     75.4        9.79            0.00            0.00          9.79         0.00         0.00
     70.7        9.72            0.00            0.00          9.72         0.00         0.00
     66.1        9.64            0.00            0.00          9.64         0.00         0.00
     61.4        9.55            0.00            0.00          9.55         0.00         0.00
     56.8        9.46            0.00            0.00          9.46         0.00         0.00
     52.1        9.37            0.00            0.00          9.37         0.00         0.00
     47.5        9.26            0.00            0.00          9.26         0.00         0.00
     42.8        9.15            0.00            0.00          9.15         0.00         0.00
     38.2        9.02            0.00            0.00          9.02         0.00         0.00
     33.5        8.88            0.00            0.00          8.88         0.00         0.00
     28.9        8.73            0.00            0.00          8.73         0.00         0.00
     24.2        8.54            0.00            0.00          8.54         0.00         0.00
     19.6        8.33            0.00            0.00          8.33         0.00         0.00
     14.9        8.06            0.00            0.00          8.06         0.00         0.00
     10.3        7.71            0.00            0.00          7.71         0.00         0.00
      5.6        7.17            0.00            0.00          7.17         0.00         0.00
      1.0        5.83            0.00            0.00          5.83         0.00         0.00


Harvested Random Seeds after Generation of the Random Numbers:

     65026800 K 1
            0 K 2


Hub-Height Simulated Turbulence Statistical Summary:

   Type of Wind        Min (m/s)   Mean (m/s)    Max (m/s)  Sigma (m/s)       TI (%)
   ----------------    ---------   ----------    ---------  -----------       ------
   Longitudinal (u)         9.26         9.99        10.86        0.307        3.071
   Lateral (v)             -0.72        -0.00         0.62        0.205        2.047
   Vertical (w)            -0.54         0.00         0.47        0.143        1.427
   U component              9.26         9.99        10.86        0.307        3.071
   V component             -0.72        -0.00         0.62        0.205        2.047
   W component             -0.54         0.00         0.47        0.143        1.427
   Horizontal (U&V)         9.26         9.99        10.87        0.307        3.069
   Total                    9.26         9.99        10.87        0.307        3.069

                       Min Reynolds     Mean Reynolds    Max Reynolds    Correlation
   Product             Stress (m/s)^2   Stress (m/s)^2   Stress (m/s)^2  Coefficient
   ----------------    --------------   --------------   --------------  -----------
   u'w'                     -0.213             0.002             0.380         0.046
   u'v'                     -0.281             0.005             0.383         0.086
   v'w'                     -0.215            -0.001             0.241        -0.033


   Friction Velocity (Ustar)  =      0.045 m/s
   Maximum Instantaneous TKE  =      0.508 (m/s)^2
   Maximum Instantaneous CTKE =      0.230 (m/s)^2


Grid Point Variance Summary:

   Y-coord  -79.05  -74.40  -69.75  -65.10  -60.45  -55.80  -51.15  -46.50  -41.85  -37.20  -32.55  -27.90  -23.25  -18.60  -13.95   -9.30   -4.65    0.00    4.65    9.30   13.95   18.60   23.25   27.90   32.55   37.20   41.85   46.50   51.15   55.80   60.45   65.10   69.75   74.40   79.05

   Height   Standard deviation at grid points for the u component:
   168.40    0.278   0.276   0.271   0.273   0.270   0.283   0.276   0.300   0.283   0.282   0.304   0.314   0.343   0.351   0.339   0.335   0.314   0.296   0.298   0.285   0.307   0.317   0.295   0.301   0.306   0.298   0.315   0.290   0.288   0.298   0.269   0.277   0.289   0.282   0.272
   163.75    0.286   0.276   0.271   0.264   0.271   0.271   0.267   0.279   0.292   0.286   0.315   0.319   0.359   0.339   0.359   0.341   0.308   0.297   0.295   0.275   0.304   0.327   0.311   0.296   0.296   0.299   0.315   0.311   0.308   0.300   0.297   0.287   0.266   0.286   0.299
   159.10    0.283   0.288   0.274   0.268   0.273   0.275   0.283   0.292   0.285   0.296   0.327   0.337   0.335   0.340   0.353   0.360   0.314   0.290   0.303   0.292   0.311   0.340   0.327   0.311   0.287   0.301   0.325   0.307   0.313   0.315   0.298   0.300   0.292   0.285   0.286
   154.45    0.293   0.303   0.288   0.290   0.271   0.260   0.275   0.279   0.287   0.322   0.332   0.338   0.341   0.345   0.340   0.334   0.333   0.324   0.318   0.300   0.301   0.320   0.316   0.309   0.302   0.311   0.331   0.331   0.335   0.338   0.314   0.311   0.296   0.284   0.275
   149.80    0.314   0.302   0.289   0.305   0.288   0.294   0.300   0.310   0.321   0.326   0.333   0.341   0.356   0.330   0.323   0.327   0.322   0.325   0.322   0.313   0.300   0.304   0.316   0.295   0.293   0.299   0.312   0.300   0.294   0.305   0.314   0.308   0.295   0.302   0.289
   145.15    0.326   0.320   0.287   0.302   0.281   0.309   0.314   0.323   0.328   0.335   0.327   0.341   0.346   0.355   0.343   0.327   0.313   0.331   0.315   0.314   0.326   0.307   0.308   0.305   0.297   0.297   0.307   0.306   0.300   0.307   0.307   0.288   0.288   0.292   0.282
   140.50    0.308   0.298   0.310   0.302   0.296   0.285   0.286   0.308   0.315   0.321   0.301   0.314   0.323   0.348   0.337   0.342   0.315   0.327   0.314   0.326   0.323   0.338   0.290   0.286   0.275   0.308   0.319   0.309   0.318   0.302   0.277   0.280   0.296   0.286   0.273
   135.85    0.281   0.276   0.299   0.312   0.308   0.314   0.304   0.296   0.333   0.323   0.299   0.301   0.297   0.324   0.324   0.322   0.311   0.301   0.322   0.319   0.307   0.309   0.302   0.298   0.304   0.318   0.284   0.292   0.298   0.267   0.274   0.291   0.299   0.286   0.269
   131.20    0.292   0.292   0.292   0.318   0.312   0.311   0.319   0.314   0.336   0.330   0.325   0.305   0.313   0.312   0.299   0.309   0.297   0.313   0.323   0.323   0.322   0.296   0.289   0.303   0.296   0.312   0.296   0.292   0.281   0.285   0.271   0.298   0.317   0.290   0.284
   126.55    0.331   0.300   0.321   0.313   0.326   0.293   0.321   0.325   0.336   0.336   0.325   0.315   0.315   0.338   0.307   0.309   0.303   0.301   0.313   0.323   0.320   0.307   0.299   0.303   0.297   0.313   0.314   0.285   0.271   0.272   0.254   0.278   0.285   0.291   0.293
   121.90    0.312   0.303   0.326   0.335   0.319   0.328   0.326   0.334   0.331   0.332   0.337   0.312   0.306   0.319   0.306   0.293   0.293   0.303   0.315   0.304   0.303   0.316   0.315   0.339   0.336   0.317   0.312   0.288   0.263   0.266   0.268   0.286   0.285   0.284   0.299
   117.25    0.291   0.316   0.321   0.325   0.349   0.329   0.342   0.329   0.348   0.337   0.328   0.314   0.299   0.304   0.319   0.301   0.301   0.302   0.310   0.299   0.306   0.311   0.332   0.322   0.321   0.321   0.320   0.299   0.272   0.274   0.278   0.277   0.304   0.305   0.307
   112.60    0.309   0.306   0.341   0.333   0.335   0.350   0.338   0.334   0.359   0.354   0.354   0.322   0.309   0.323   0.316   0.293   0.305   0.306   0.313   0.311   0.317   0.310   0.323   0.339   0.320   0.300   0.293   0.297   0.302   0.293   0.288   0.304   0.321   0.332   0.311
   107.95    0.310   0.309   0.325   0.363   0.364   0.349   0.347   0.331   0.355   0.356   0.353   0.333   0.330   0.310   0.313   0.320   0.304   0.295   0.307   0.301   0.323   0.321   0.315   0.328   0.321   0.325   0.299   0.303   0.301   0.298   0.311   0.312   0.323   0.335   0.315
   103.30    0.337   0.356   0.350   0.363   0.358   0.345   0.339   0.341   0.363   0.357   0.325   0.326   0.328   0.327   0.312   0.305   0.302   0.287   0.305   0.320   0.306   0.311   0.324   0.343   0.343   0.340   0.331   0.312   0.301   0.322   0.318   0.328   0.320   0.319   0.319
    98.65    0.339   0.367   0.385   0.369   0.394   0.360   0.361   0.351   0.355   0.348   0.328   0.334   0.320   0.321   0.313   0.316   0.307   0.293   0.291   0.312   0.320   0.331   0.333   0.345   0.339   0.373   0.360   0.354   0.347   0.330   0.324   0.331   0.334   0.330   0.342
    94.00    0.366   0.370   0.395   0.394   0.392   0.384   0.376   0.352   0.366   0.341   0.347   0.340   0.316   0.318   0.317   0.308   0.288   0.305   0.315   0.303   0.325   0.352   0.350   0.349   0.358   0.379   0.364   0.351   0.353   0.331   0.317   0.338   0.349   0.340   0.356
    89.35    0.354   0.395   0.406   0.402   0.407   0.395   0.390   0.369   0.351   0.343   0.340   0.370   0.335   0.299   0.327   0.300   0.297   0.307   0.323   0.308   0.312   0.350   0.351   0.374   0.367   0.381   0.363   0.341   0.359   0.337   0.327   0.337   0.330   0.339   0.352
    84.70    0.343   0.385   0.385   0.406   0.403   0.387   0.381   0.375   0.372   0.371   0.363   0.365   0.329   0.329   0.311   0.308   0.314   0.329   0.319   0.316   0.314   0.329   0.345   0.369   0.378   0.355   0.348   0.338   0.339   0.337   0.318   0.330   0.336   0.332   0.353
    80.05    0.358   0.370   0.390   0.385   0.407   0.376   0.375   0.389   0.382   0.351   0.332   0.353   0.345   0.339   0.327   0.308   0.300   0.319   0.331   0.333   0.309   0.344   0.360   0.376   0.375   0.385   0.343   0.340   0.313   0.324   0.325   0.326   0.337   0.316   0.348
    75.40    0.348   0.353   0.366   0.376   0.403   0.378   0.388   0.354   0.346   0.335   0.351   0.338   0.321   0.316   0.304   0.319   0.311   0.324   0.333   0.324   0.345   0.351   0.363   0.365   0.372   0.356   0.335   0.337   0.338   0.326   0.339   0.338   0.337   0.327   0.346
    70.75    0.341   0.344   0.370   0.390   0.405   0.401   0.355   0.339   0.348   0.350   0.326   0.312   0.315   0.314   0.303   0.305   0.327   0.341   0.335   0.337   0.344   0.346   0.338   0.353   0.338   0.339   0.341   0.348   0.344   0.322   0.322   0.344   0.328   0.325   0.353
    66.10    0.363   0.373   0.390   0.406   0.419   0.390   0.358   0.351   0.340   0.324   0.330   0.314   0.332   0.313   0.308   0.307   0.293   0.316   0.327   0.328   0.320   0.342   0.336   0.316   0.315   0.341   0.326   0.355   0.338   0.332   0.320   0.321   0.322   0.303   0.322
    61.45    0.379   0.387   0.389   0.418   0.379   0.387   0.358   0.360   0.330   0.335   0.331   0.323   0.320   0.307   0.310   0.307   0.308   0.312   0.331   0.328   0.332   0.331   0.343   0.337   0.322   0.337   0.345   0.359   0.371   0.365   0.348   0.342   0.339   0.315   0.329
    56.80    0.393   0.382   0.399   0.390   0.381   0.390   0.331   0.338   0.346   0.358   0.342   0.333   0.325   0.315   0.297   0.316   0.328   0.315   0.332   0.351   0.337   0.337   0.341   0.337   0.322   0.343   0.379   0.355   0.344   0.358   0.349   0.360   0.347   0.352   0.351
    52.15    0.385   0.376   0.387   0.378   0.379   0.371   0.329   0.322   0.333   0.339   0.353   0.345   0.320   0.315   0.289   0.307   0.327   0.323   0.337   0.323   0.341   0.337   0.329   0.312   0.308   0.340   0.348   0.335   0.325   0.329   0.348   0.361   0.331   0.362   0.377
    47.50    0.355   0.387   0.386   0.368   0.356   0.369   0.368   0.367   0.335   0.336   0.344   0.337   0.313   0.310   0.298   0.331   0.356   0.311   0.315   0.330   0.330   0.335   0.322   0.310   0.326   0.321   0.327   0.311   0.317   0.356   0.373   0.372   0.371   0.345   0.344
    42.85    0.353   0.365   0.362   0.370   0.355   0.358   0.369   0.356   0.348   0.328   0.328   0.309   0.298   0.305   0.332   0.324   0.316   0.311   0.285   0.319   0.359   0.354   0.324   0.318   0.300   0.319   0.307   0.318   0.359   0.358   0.356   0.350   0.355   0.362   0.367
    38.20    0.349   0.346   0.366   0.350   0.356   0.350   0.354   0.362   0.357   0.338   0.321   0.322   0.307   0.289   0.313   0.308   0.331   0.316   0.309   0.319   0.350   0.350   0.311   0.312   0.300   0.325   0.330   0.364   0.367   0.365   0.368   0.341   0.358   0.384   0.391
    33.55    0.341   0.359   0.367   0.367   0.351   0.336   0.352   0.353   0.326   0.324   0.326   0.339   0.324   0.309   0.294   0.300   0.314   0.311   0.310   0.331   0.342   0.353   0.319   0.314   0.321   0.345   0.331   0.343   0.381   0.391   0.382   0.359   0.377   0.391   0.371
    28.90    0.324   0.335   0.347   0.356   0.322   0.331   0.338   0.327   0.332   0.316   0.320   0.301   0.324   0.304   0.282   0.293   0.290   0.280   0.284   0.314   0.341   0.356   0.324   0.317   0.350   0.345   0.349   0.351   0.379   0.403   0.382   0.372   0.377   0.378   0.405
    24.25    0.312   0.317   0.347   0.339   0.340   0.348   0.345   0.329   0.327   0.307   0.310   0.301   0.299   0.290   0.280   0.288   0.276   0.282   0.292   0.314   0.329   0.322   0.330   0.319   0.353   0.339   0.356   0.369   0.391   0.396   0.415   0.396   0.424   0.424   0.402
    19.60    0.316   0.342   0.326   0.341   0.331   0.341   0.350   0.341   0.326   0.319   0.299   0.296   0.287   0.303   0.286   0.265   0.269   0.284   0.310   0.293   0.315   0.325   0.322   0.346   0.336   0.348   0.370   0.359   0.387   0.406   0.410   0.411   0.407   0.382   0.403
    14.95    0.345   0.347   0.327   0.334   0.339   0.332   0.354   0.345   0.338   0.308   0.300   0.307   0.295   0.300   0.298   0.288   0.282   0.279   0.288   0.304   0.309   0.335   0.334   0.338   0.342   0.355   0.357   0.358   0.380   0.398   0.387   0.383   0.386   0.387   0.384
    10.30    0.337   0.316   0.361   0.345   0.368   0.352   0.339   0.361   0.359   0.336   0.335   0.307   0.322   0.310   0.306   0.294   0.295   0.286   0.278   0.296   0.314   0.318   0.314   0.330   0.312   0.332   0.369   0.379   0.398   0.408   0.384   0.365   0.382   0.371   0.363
     5.65    0.338   0.325   0.343   0.356   0.348   0.352   0.347   0.349   0.359   0.333   0.339   0.312   0.304   0.304   0.309   0.298   0.296   0.282   0.282   0.285   0.315   0.323   0.324   0.321   0.314   0.316   0.353   0.374   0.403   0.409   0.363   0.359   0.360   0.377   0.367
     1.00    0.337   0.331   0.341   0.341   0.342   0.337   0.326   0.318   0.319   0.314   0.313   0.303   0.303   0.321   0.323   0.302   0.308   0.281   0.287   0.296   0.296   0.308   0.331   0.321   0.339   0.320   0.339   0.353   0.383   0.370   0.360   0.353   0.356   0.358   0.364

   Height   Standard deviation at grid points for the v component:
   168.40    0.221   0.224   0.216   0.218   0.214   0.200   0.197   0.202   0.200   0.199   0.201   0.203   0.221   0.225   0.231   0.236   0.228   0.225   0.227   0.216   0.209   0.214   0.223   0.208   0.199   0.195   0.197   0.194   0.190   0.202   0.199   0.199   0.189   0.199   0.194
   163.75    0.213   0.216   0.210   0.203   0.194   0.200   0.198   0.201   0.203   0.219   0.205   0.194   0.214   0.227   0.235   0.229   0.229   0.223   0.223   0.218   0.221   0.217   0.218   0.227   0.205   0.197   0.195   0.191   0.189   0.187   0.197   0.200   0.199   0.200   0.202
   159.10    0.206   0.215   0.213   0.207   0.202   0.210   0.202   0.209   0.214   0.211   0.214   0.211   0.199   0.224   0.231   0.224   0.214   0.225   0.229   0.223   0.204   0.211   0.214   0.206   0.215   0.198   0.199   0.186   0.179   0.187   0.193   0.204   0.206   0.207   0.206
   154.45    0.215   0.202   0.204   0.206   0.216   0.208   0.209   0.216   0.201   0.208   0.204   0.199   0.203   0.214   0.214   0.225   0.218   0.231   0.232   0.234   0.218   0.219   0.220   0.204   0.213   0.205   0.194   0.195   0.196   0.194   0.197   0.199   0.208   0.210   0.217
   149.80    0.207   0.199   0.200   0.204   0.209   0.210   0.209   0.207   0.214   0.213   0.192   0.194   0.201   0.200   0.207   0.206   0.213   0.228   0.224   0.224   0.223   0.227   0.225   0.216   0.213   0.211   0.202   0.197   0.194   0.196   0.192   0.206   0.211   0.209   0.213
   145.15    0.214   0.204   0.199   0.192   0.190   0.195   0.194   0.187   0.202   0.207   0.197   0.189   0.192   0.198   0.205   0.212   0.213   0.217   0.226   0.220   0.224   0.212   0.206   0.215   0.216   0.211   0.196   0.185   0.183   0.195   0.198   0.200   0.207   0.199   0.207
   140.50    0.195   0.187   0.186   0.188   0.195   0.196   0.192   0.181   0.197   0.198   0.196   0.196   0.194   0.197   0.203   0.209   0.215   0.210   0.217   0.215   0.211   0.218   0.204   0.202   0.211   0.205   0.206   0.193   0.203   0.202   0.197   0.206   0.200   0.209   0.216
   135.85    0.192   0.190   0.189   0.184   0.189   0.197   0.193   0.191   0.198   0.195   0.192   0.196   0.202   0.203   0.210   0.204   0.200   0.212   0.209   0.216   0.215   0.210   0.213   0.208   0.212   0.203   0.198   0.207   0.212   0.210   0.205   0.205   0.204   0.210   0.222
   131.20    0.189   0.192   0.193   0.184   0.187   0.190   0.196   0.192   0.197   0.201   0.211   0.193   0.205   0.212   0.218   0.209   0.209   0.215   0.204   0.223   0.214   0.220   0.217   0.210   0.205   0.192   0.195   0.210   0.196   0.198   0.202   0.201   0.219   0.222   0.223
   126.55    0.190   0.180   0.181   0.191   0.180   0.186   0.210   0.211   0.203   0.198   0.202   0.206   0.208   0.218   0.217   0.224   0.233   0.222   0.210   0.221   0.213   0.220   0.217   0.201   0.200   0.207   0.204   0.204   0.207   0.202   0.205   0.217   0.212   0.219   0.218
   121.90    0.192   0.188   0.181   0.192   0.197   0.205   0.213   0.215   0.219   0.210   0.213   0.215   0.223   0.228   0.215   0.243   0.249   0.229   0.222   0.210   0.221   0.207   0.214   0.212   0.196   0.200   0.199   0.204   0.200   0.209   0.208   0.198   0.212   0.221   0.225
   117.25    0.189   0.191   0.193   0.199   0.196   0.190   0.202   0.216   0.221   0.207   0.219   0.219   0.206   0.227   0.225   0.233   0.231   0.233   0.233   0.232   0.205   0.199   0.207   0.226   0.209   0.209   0.200   0.188   0.194   0.193   0.203   0.206   0.209   0.229   0.224
   112.60    0.193   0.186   0.191   0.203   0.205   0.200   0.202   0.206   0.210   0.214   0.229   0.230   0.225   0.204   0.223   0.235   0.226   0.214   0.209   0.219   0.207   0.193   0.201   0.207   0.203   0.209   0.207   0.194   0.205   0.204   0.199   0.205   0.218   0.228   0.219
   107.95    0.181   0.182   0.193   0.199   0.201   0.204   0.207   0.224   0.213   0.204   0.213   0.215   0.214   0.208   0.215   0.230   0.234   0.232   0.211   0.207   0.200   0.200   0.203   0.207   0.195   0.196   0.196   0.206   0.210   0.203   0.206   0.211   0.213   0.224   0.209
   103.30    0.184   0.192   0.196   0.206   0.207   0.212   0.215   0.224   0.210   0.218   0.211   0.213   0.210   0.214   0.220   0.221   0.228   0.217   0.214   0.208   0.194   0.196   0.194   0.205   0.210   0.204   0.211   0.207   0.216   0.210   0.213   0.205   0.200   0.211   0.209
    98.65    0.195   0.192   0.190   0.213   0.214   0.212   0.221   0.229   0.209   0.220   0.223   0.219   0.215   0.219   0.220   0.220   0.225   0.211   0.211   0.213   0.195   0.194   0.192   0.203   0.207   0.198   0.195   0.211   0.203   0.214   0.207   0.205   0.198   0.202   0.213
    94.00    0.194   0.202   0.220   0.200   0.218   0.222   0.212   0.213   0.205   0.207   0.206   0.210   0.208   0.218   0.229   0.223   0.220   0.211   0.209   0.200   0.196   0.210   0.209   0.209   0.210   0.204   0.201   0.213   0.223   0.215   0.203   0.205   0.204   0.204   0.203
    89.35    0.214   0.226   0.224   0.230   0.215   0.207   0.220   0.214   0.208   0.197   0.203   0.196   0.205   0.208   0.217   0.213   0.209   0.205   0.199   0.196   0.198   0.214   0.218   0.221   0.204   0.205   0.207   0.206   0.216   0.213   0.202   0.206   0.200   0.201   0.208
    84.70    0.229   0.224   0.234   0.245   0.219   0.223   0.220   0.211   0.196   0.201   0.215   0.216   0.204   0.206   0.212   0.207   0.210   0.201   0.200   0.199   0.201   0.215   0.203   0.203   0.203   0.209   0.200   0.206   0.200   0.211   0.210   0.200   0.200   0.203   0.201
    80.05    0.219   0.234   0.226   0.239   0.229   0.223   0.232   0.211   0.206   0.218   0.216   0.235   0.223   0.224   0.214   0.219   0.199   0.193   0.198   0.203   0.202   0.208   0.211   0.215   0.209   0.203   0.200   0.199   0.192   0.204   0.211   0.206   0.200   0.203   0.202
    75.40    0.232   0.224   0.225   0.237   0.224   0.217   0.221   0.210   0.222   0.216   0.224   0.226   0.232   0.225   0.209   0.207   0.212   0.209   0.201   0.205   0.205   0.206   0.214   0.207   0.206   0.200   0.191   0.201   0.196   0.214   0.218   0.214   0.203   0.209   0.204
    70.75    0.227   0.216   0.221   0.228   0.211   0.210   0.216   0.220   0.218   0.228   0.223   0.210   0.210   0.214   0.215   0.211   0.208   0.199   0.202   0.213   0.211   0.205   0.206   0.200   0.198   0.198   0.198   0.214   0.209   0.216   0.222   0.217   0.222   0.209   0.206
    66.10    0.238   0.226   0.224   0.221   0.237   0.232   0.222   0.227   0.224   0.231   0.230   0.231   0.217   0.214   0.202   0.205   0.203   0.196   0.209   0.224   0.203   0.209   0.209   0.208   0.198   0.204   0.198   0.213   0.209   0.219   0.225   0.226   0.209   0.210   0.202
    61.45    0.234   0.228   0.232   0.233   0.239   0.226   0.234   0.228   0.217   0.231   0.230   0.229   0.210   0.214   0.203   0.206   0.206   0.197   0.203   0.209   0.204   0.210   0.205   0.209   0.202   0.198   0.199   0.212   0.216   0.228   0.223   0.214   0.211   0.201   0.204
    56.80    0.224   0.233   0.221   0.227   0.224   0.227   0.227   0.225   0.222   0.223   0.223   0.231   0.222   0.219   0.209   0.207   0.200   0.201   0.208   0.203   0.200   0.204   0.205   0.197   0.197   0.197   0.197   0.205   0.219   0.229   0.212   0.205   0.205   0.197   0.195
    52.15    0.222   0.215   0.230   0.215   0.224   0.215   0.206   0.215   0.214   0.217   0.220   0.224   0.219   0.222   0.217   0.199   0.204   0.197   0.202   0.201   0.207   0.205   0.206   0.210   0.197   0.192   0.196   0.204   0.218   0.218   0.215   0.213   0.199   0.186   0.182
    47.50    0.220   0.221   0.227   0.217   0.222   0.217   0.215   0.211   0.215   0.213   0.209   0.213   0.221   0.220   0.204   0.201   0.205   0.211   0.199   0.198   0.206   0.212   0.213   0.212   0.208   0.200   0.203   0.206   0.213   0.211   0.218   0.216   0.206   0.207   0.186
    42.85    0.228   0.238   0.236   0.217   0.222   0.220   0.228   0.215   0.208   0.214   0.206   0.217   0.223   0.213   0.214   0.205   0.215   0.219   0.214   0.195   0.209   0.225   0.221   0.211   0.202   0.197   0.206   0.201   0.214   0.213   0.202   0.212   0.212   0.209   0.198
    38.20    0.227   0.236   0.237   0.234   0.229   0.223   0.220   0.219   0.215   0.219   0.208   0.216   0.223   0.225   0.214   0.218   0.220   0.205   0.190   0.189   0.200   0.212   0.214   0.203   0.195   0.194   0.204   0.206   0.206   0.213   0.211   0.211   0.220   0.200   0.188
    33.55    0.225   0.219   0.237   0.227   0.223   0.225   0.221   0.209   0.209   0.214   0.218   0.226   0.220   0.215   0.218   0.219   0.210   0.198   0.198   0.184   0.189   0.204   0.218   0.206   0.194   0.194   0.193   0.208   0.197   0.201   0.213   0.206   0.207   0.196   0.197
    28.90    0.218   0.213   0.227   0.227   0.225   0.220   0.217   0.213   0.209   0.206   0.209   0.218   0.222   0.220   0.225   0.222   0.218   0.212   0.203   0.196   0.190   0.207   0.212   0.213   0.196   0.191   0.192   0.194   0.198   0.197   0.200   0.202   0.196   0.200   0.191
    24.25    0.222   0.229   0.227   0.232   0.214   0.213   0.202   0.204   0.204   0.207   0.212   0.226   0.214   0.220   0.220   0.216   0.210   0.212   0.210   0.199   0.203   0.200   0.209   0.198   0.198   0.204   0.194   0.204   0.202   0.203   0.210   0.214   0.209   0.212   0.200
    19.60    0.224   0.227   0.227   0.231   0.216   0.201   0.202   0.202   0.215   0.205   0.212   0.223   0.226   0.225   0.232   0.226   0.218   0.214   0.218   0.212   0.205   0.202   0.215   0.221   0.215   0.211   0.204   0.209   0.198   0.198   0.212   0.216   0.198   0.205   0.206
    14.95    0.223   0.232   0.238   0.229   0.210   0.197   0.198   0.195   0.200   0.209   0.209   0.223   0.224   0.227   0.241   0.237   0.224   0.218   0.216   0.218   0.207   0.203   0.218   0.225   0.220   0.214   0.211   0.208   0.208   0.214   0.212   0.212   0.203   0.200   0.206
    10.30    0.215   0.220   0.224   0.224   0.195   0.194   0.206   0.197   0.199   0.204   0.215   0.218   0.216   0.208   0.220   0.232   0.235   0.228   0.220   0.214   0.214   0.212   0.217   0.224   0.220   0.217   0.211   0.215   0.217   0.224   0.224   0.204   0.205   0.199   0.196
     5.65    0.211   0.222   0.221   0.209   0.198   0.200   0.201   0.202   0.205   0.215   0.218   0.233   0.217   0.209   0.219   0.227   0.228   0.218   0.215   0.222   0.204   0.213   0.213   0.220   0.211   0.219   0.220   0.214   0.218   0.227   0.217   0.216   0.207   0.204   0.203
     1.00    0.211   0.207   0.203   0.206   0.208   0.202   0.207   0.196   0.203   0.208   0.210   0.210   0.219   0.206   0.216   0.210   0.224   0.225   0.211   0.205   0.207   0.206   0.208   0.214   0.213   0.228   0.215   0.209   0.214   0.217   0.221   0.221   0.203   0.204   0.204

   Height   Standard deviation at grid points for the w component:
   168.40    0.148   0.145   0.151   0.149   0.154   0.151   0.150   0.153   0.157   0.151   0.154   0.154   0.149   0.150   0.152   0.153   0.151   0.146   0.145   0.149   0.146   0.146   0.141   0.146   0.154   0.148   0.144   0.142   0.139   0.143   0.146   0.152   0.147   0.145   0.143
   163.75    0.148   0.146   0.149   0.146   0.149   0.151   0.152   0.154   0.150   0.150   0.152   0.156   0.155   0.149   0.149   0.150   0.152   0.149   0.148   0.145   0.152   0.144   0.147   0.153   0.155   0.155   0.149   0.141   0.148   0.145   0.147   0.145   0.151   0.153   0.142
   159.10    0.149   0.149   0.144   0.145   0.148   0.143   0.144   0.145   0.148   0.152   0.154   0.153   0.151   0.149   0.147   0.146   0.152   0.152   0.153   0.149   0.149   0.141   0.149   0.146   0.156   0.156   0.157   0.148   0.155   0.146   0.148   0.145   0.144   0.147   0.142
   154.45    0.147   0.146   0.149   0.149   0.151   0.140   0.142   0.145   0.145   0.145   0.146   0.147   0.150   0.147   0.148   0.150   0.150   0.154   0.151   0.153   0.150   0.149   0.152   0.152   0.154   0.147   0.149   0.155   0.158   0.157   0.148   0.142   0.143   0.144   0.146
   149.80    0.146   0.148   0.148   0.145   0.145   0.141   0.141   0.139   0.140   0.141   0.145   0.150   0.146   0.145   0.143   0.139   0.146   0.146   0.151   0.153   0.145   0.144   0.154   0.150   0.151   0.141   0.144   0.154   0.150   0.155   0.155   0.143   0.143   0.146   0.150
   145.15    0.140   0.140   0.143   0.147   0.144   0.144   0.144   0.143   0.139   0.140   0.142   0.149   0.147   0.150   0.144   0.141   0.144   0.143   0.150   0.147   0.149   0.157   0.152   0.152   0.151   0.146   0.146   0.148   0.149   0.152   0.150   0.151   0.146   0.143   0.141
   140.50    0.146   0.146   0.144   0.144   0.144   0.145   0.143   0.147   0.143   0.145   0.148   0.149   0.159   0.147   0.140   0.141   0.144   0.145   0.146   0.150   0.152   0.161   0.151   0.154   0.147   0.146   0.147   0.148   0.151   0.149   0.147   0.145   0.146   0.147   0.142
   135.85    0.148   0.144   0.151   0.148   0.150   0.145   0.146   0.146   0.141   0.144   0.148   0.147   0.148   0.148   0.141   0.140   0.143   0.142   0.147   0.148   0.147   0.155   0.159   0.154   0.145   0.141   0.140   0.146   0.147   0.148   0.145   0.151   0.148   0.146   0.147
   131.20    0.145   0.148   0.148   0.148   0.147   0.146   0.151   0.145   0.145   0.145   0.146   0.143   0.141   0.139   0.139   0.143   0.141   0.139   0.140   0.144   0.144   0.152   0.154   0.154   0.147   0.148   0.145   0.141   0.147   0.148   0.150   0.150   0.151   0.149   0.149
   126.55    0.145   0.149   0.151   0.146   0.151   0.154   0.150   0.146   0.146   0.142   0.145   0.142   0.138   0.135   0.137   0.142   0.136   0.134   0.134   0.140   0.146   0.145   0.149   0.152   0.151   0.151   0.144   0.140   0.143   0.149   0.147   0.148   0.148   0.149   0.147
   121.90    0.144   0.148   0.151   0.149   0.156   0.152   0.142   0.145   0.149   0.148   0.147   0.143   0.137   0.133   0.138   0.136   0.132   0.132   0.135   0.135   0.143   0.147   0.151   0.153   0.154   0.156   0.150   0.146   0.144   0.151   0.148   0.141   0.148   0.149   0.148
   117.25    0.137   0.146   0.145   0.154   0.158   0.155   0.153   0.146   0.146   0.144   0.150   0.145   0.142   0.141   0.140   0.146   0.139   0.133   0.135   0.137   0.142   0.148   0.150   0.156   0.158   0.153   0.155   0.153   0.147   0.148   0.145   0.144   0.152   0.143   0.149
   112.60    0.144   0.148   0.149   0.148   0.153   0.154   0.158   0.153   0.151   0.150   0.153   0.146   0.148   0.144   0.143   0.148   0.139   0.136   0.136   0.140   0.140   0.146   0.149   0.152   0.150   0.146   0.147   0.150   0.145   0.144   0.145   0.141   0.145   0.141   0.149
   107.95    0.139   0.142   0.149   0.152   0.155   0.157   0.151   0.147   0.147   0.150   0.153   0.147   0.143   0.146   0.141   0.145   0.144   0.141   0.139   0.138   0.141   0.140   0.144   0.145   0.150   0.148   0.153   0.147   0.146   0.149   0.146   0.144   0.140   0.141   0.146
   103.30    0.140   0.139   0.148   0.150   0.149   0.154   0.145   0.146   0.150   0.151   0.149   0.147   0.145   0.141   0.136   0.139   0.143   0.143   0.145   0.140   0.139   0.142   0.142   0.144   0.156   0.152   0.151   0.145   0.146   0.142   0.143   0.146   0.140   0.142   0.146
    98.65    0.144   0.148   0.147   0.141   0.146   0.148   0.148   0.141   0.149   0.151   0.151   0.146   0.142   0.139   0.142   0.140   0.142   0.145   0.149   0.144   0.141   0.145   0.150   0.147   0.155   0.149   0.145   0.143   0.145   0.142   0.145   0.145   0.139   0.145   0.148
    94.00    0.147   0.151   0.146   0.148   0.148   0.149   0.151   0.145   0.140   0.146   0.142   0.149   0.144   0.142   0.143   0.147   0.149   0.151   0.144   0.149   0.144   0.145   0.146   0.149   0.147   0.150   0.142   0.146   0.147   0.146   0.145   0.146   0.142   0.139   0.146
    89.35    0.140   0.143   0.151   0.152   0.152   0.152   0.152   0.154   0.148   0.144   0.148   0.147   0.147   0.148   0.145   0.148   0.148   0.143   0.149   0.149   0.148   0.147   0.146   0.151   0.152   0.146   0.149   0.147   0.147   0.148   0.147   0.143   0.143   0.142   0.147
    84.70    0.146   0.142   0.149   0.146   0.146   0.147   0.147   0.148   0.149   0.148   0.150   0.145   0.143   0.143   0.150   0.144   0.146   0.148   0.148   0.150   0.140   0.145   0.147   0.150   0.148   0.147   0.140   0.145   0.151   0.149   0.148   0.144   0.141   0.139   0.148
    80.05    0.142   0.143   0.149   0.150   0.148   0.140   0.149   0.149   0.149   0.151   0.143   0.146   0.141   0.143   0.147   0.145   0.145   0.146   0.150   0.153   0.148   0.147   0.141   0.144   0.147   0.144   0.139   0.144   0.146   0.148   0.147   0.142   0.142   0.142   0.145
    75.40    0.140   0.138   0.142   0.146   0.149   0.145   0.138   0.148   0.150   0.145   0.141   0.144   0.149   0.145   0.143   0.145   0.143   0.143   0.151   0.152   0.152   0.147   0.146   0.140   0.146   0.142   0.144   0.145   0.146   0.146   0.143   0.142   0.137   0.141   0.144
    70.75    0.140   0.139   0.142   0.142   0.144   0.146   0.145   0.148   0.143   0.145   0.142   0.146   0.145   0.147   0.141   0.142   0.142   0.142   0.146   0.148   0.152   0.149   0.145   0.145   0.144   0.146   0.146   0.148   0.151   0.144   0.146   0.141   0.142   0.145   0.144
    66.10    0.136   0.136   0.141   0.144   0.145   0.149   0.147   0.148   0.144   0.139   0.143   0.143   0.146   0.145   0.143   0.139   0.146   0.147   0.148   0.150   0.150   0.145   0.144   0.146   0.150   0.152   0.149   0.149   0.146   0.142   0.143   0.148   0.147   0.148   0.147
    61.45    0.146   0.143   0.141   0.146   0.145   0.148   0.149   0.144   0.141   0.141   0.142   0.141   0.143   0.145   0.140   0.144   0.142   0.147   0.148   0.145   0.143   0.150   0.150   0.149   0.149   0.152   0.149   0.151   0.145   0.145   0.150   0.152   0.147   0.153   0.148
    56.80    0.142   0.142   0.142   0.140   0.144   0.145   0.143   0.146   0.139   0.143   0.136   0.139   0.141   0.146   0.146   0.146   0.147   0.148   0.148   0.147   0.148   0.152   0.154   0.151   0.153   0.155   0.149   0.145   0.143   0.147   0.152   0.146   0.147   0.149   0.142
    52.15    0.144   0.143   0.141   0.140   0.140   0.142   0.148   0.148   0.143   0.140   0.140   0.143   0.147   0.145   0.145   0.141   0.146   0.149   0.150   0.149   0.149   0.153   0.151   0.155   0.156   0.154   0.149   0.146   0.153   0.150   0.148   0.147   0.153   0.148   0.147
    47.50    0.147   0.148   0.138   0.141   0.140   0.141   0.142   0.150   0.145   0.145   0.141   0.143   0.143   0.151   0.144   0.143   0.145   0.145   0.146   0.150   0.146   0.147   0.154   0.155   0.156   0.153   0.150   0.156   0.157   0.153   0.162   0.151   0.151   0.146   0.146
    42.85    0.148   0.144   0.141   0.138   0.137   0.142   0.143   0.149   0.140   0.144   0.142   0.145   0.146   0.150   0.148   0.143   0.145   0.150   0.147   0.143   0.151   0.149   0.151   0.157   0.152   0.152   0.151   0.153   0.158   0.158   0.153   0.150   0.149   0.146   0.148
    38.20    0.149   0.145   0.146   0.138   0.142   0.143   0.147   0.147   0.150   0.145   0.153   0.145   0.145   0.148   0.149   0.143   0.146   0.146   0.148   0.142   0.146   0.146   0.149   0.154   0.151   0.151   0.157   0.149   0.152   0.150   0.146   0.145   0.141   0.147   0.144
    33.55    0.147   0.150   0.151   0.144   0.139   0.144   0.146   0.142   0.148   0.151   0.151   0.146   0.141   0.151   0.148   0.151   0.147   0.143   0.143   0.148   0.150   0.143   0.146   0.148   0.150   0.154   0.153   0.151   0.156   0.152   0.152   0.147   0.148   0.149   0.144
    28.90    0.150   0.147   0.150   0.144   0.147   0.150   0.151   0.147   0.144   0.150   0.151   0.149   0.147   0.148   0.150   0.141   0.145   0.152   0.146   0.147   0.145   0.141   0.148   0.150   0.151   0.152   0.152   0.147   0.150   0.149   0.145   0.143   0.148   0.148   0.144
    24.25    0.147   0.146   0.151   0.154   0.144   0.150   0.150   0.150   0.154   0.151   0.152   0.154   0.154   0.144   0.142   0.139   0.148   0.148   0.145   0.149   0.146   0.144   0.147   0.147   0.157   0.158   0.151   0.153   0.150   0.139   0.145   0.143   0.152   0.144   0.147
    19.60    0.150   0.151   0.154   0.150   0.145   0.152   0.146   0.151   0.149   0.145   0.147   0.153   0.151   0.151   0.147   0.144   0.144   0.146   0.142   0.145   0.151   0.151   0.150   0.153   0.152   0.152   0.154   0.148   0.145   0.140   0.142   0.147   0.148   0.152   0.148
    14.95    0.151   0.150   0.149   0.154   0.154   0.155   0.152   0.152   0.148   0.141   0.146   0.146   0.152   0.151   0.149   0.152   0.150   0.147   0.148   0.153   0.154   0.150   0.154   0.153   0.149   0.149   0.150   0.142   0.141   0.142   0.144   0.146   0.147   0.153   0.149
    10.30    0.152   0.150   0.147   0.149   0.152   0.149   0.147   0.147   0.149   0.143   0.142   0.144   0.148   0.153   0.150   0.155   0.158   0.152   0.155   0.154   0.151   0.153   0.146   0.146   0.146   0.146   0.146   0.148   0.144   0.145   0.148   0.144   0.151   0.156   0.152
     5.65    0.152   0.148   0.148   0.149   0.145   0.143   0.143   0.144   0.147   0.144   0.147   0.150   0.153   0.152   0.151   0.151   0.161   0.155   0.154   0.157   0.149   0.150   0.147   0.145   0.146   0.152   0.150   0.152   0.150   0.147   0.149   0.149   0.149   0.153   0.149
     1.00    0.150   0.153   0.156   0.153   0.147   0.143   0.138   0.145   0.151   0.156   0.153   0.149   0.152   0.149   0.156   0.156   0.158   0.156   0.161   0.157   0.151   0.148   0.152   0.150   0.150   0.154   0.149   0.151   0.155   0.150   0.145   0.147   0.146   0.150   0.148

   Mean standard deviation across all grid points:
      u component:    0.328 m/s
      v component:    0.210 m/s
      w component:    0.147 m/s


U-component (X) statistics from the interpolated hub point:

   Mean =   9.9913 m/s
   TI   =   3.0713 %


Processing complete.  5573.8 CPU seconds used.
