
This summary file was generated by TurbSim (from OpenFAST-v3.5.3) on 19-Apr-2025 at 20:15:58.


Runtime Options:

-228636811  Random seed #1
    RANLUX  Type of random number generator
         F  Output binary HH turbulence parameters?
         F  Output formatted turbulence parameters?
         F  Output AeroDyn HH files?
         T  Output AeroDyn FF files?
         F  Output BLADED FF files?
         F  Output tower data?
         F  Output HAWC FF files?
         F  Output formatted FF files?
         T  Output coherent turbulence time step file?
 0 -  NONE  IEC turbulence models scaled to exact specified standard deviation


Turbine/Model Specifications:

        39  Vertical grid-point matrix dimension
       193  Horizontal grid-point matrix dimension
     0.250  Time step [seconds]
   900.000  Analysis time [seconds]
   900.000  Usable output time [seconds]
   177.700  Hub height [m]
   353.400  Grid height [m]
  1785.600  Grid width [m]
     0.000  Vertical flow angle [degrees]
     0.000  Horizontal flow angle [degrees]


Meteorological Boundary Conditions:

    IECKAI  IEC Kaimal spectral model
         1  IEC standard: IEC 61400-1 Ed. 3: 2005
     6.000  Percent turbulence intensity, IEC 61400-1 Ed. 3: 2005
       NTM  IEC Normal Turbulence Model
       N/A  IEC Extreme Turbulence Model (ETM) "c" parameter [m/s]
       USR  Wind profile type
    90.000  Reference height [m]
       N/A  Reference wind speed [m/s]
       N/A  Jet height [m]
       N/A  Power law exponent
     0.030  Surface roughness length [m]


Non-IEC Meteorological Boundary Conditions:

       N/A  Site latitude [degrees]
       N/A  Gradient Richardson number
       N/A  Friction or shear velocity [m/s]
       N/A  Mixing layer depth [m]
       N/A  Mean hub u'w' Reynolds stress
       N/A  Mean hub u'v' Reynolds stress
       N/A  Mean hub v'w' Reynolds stress


Spatial Coherence Models:

       IEC  u-component coherence model
       IEC  v-component coherence model
       IEC  w-component coherence model
(   12.000, 0.353E-03)  u-component coherence parameters
(   12.000, 0.353E-03)  v-component coherence parameters
(   12.000, 0.353E-03)  w-component coherence parameters
       N/A  Coherence exponent


User-Defined Profiles:

  Height   Wind Speed   Horizontal Angle
   (m)        (m/s)          (deg)      
  ------   ----------   ----------------
  353.40      10.00         318.19
  334.80      10.00         321.14
  316.20      10.00         324.10
  297.60      10.00         327.05
  279.00      10.00         330.00
  260.40      10.00         332.95
  241.80      10.00         335.90
  223.20      10.00         338.86
  204.60      10.00         341.81
  186.00      10.00         344.76
  167.40      10.00         347.71
  148.80      10.00         350.67
  130.20      10.00         353.62
  111.60      10.00         356.57
   93.00      10.00         359.52
   74.40      10.00           2.48
   55.80      10.00           5.43
   37.20      10.00           8.38
   18.60      10.00          11.33
    0.00      10.00          14.29


You have requested that the following file(s) be generated:

   /kfs3/scratch/agupta/Projects/RL_Incubator/FinalRuns_Veer/Seed4/./FFSim_Seed4/Cond00_v10.0_PL0.12_TI6.0/Seed_1/Low.bts (AeroDyn/TurbSim full-field wind file)


Turbulence Simulation Scaling Parameter Summary:

   Turbulence model used                            =  IEC Kaimal
   Turbulence characteristic                        =  User-specified
   IEC standard                                     =  IEC 61400-1 Ed. 3: 2005
   Mean wind speed at hub height                    =   10.000 m/s
   Characteristic value of standard deviation       =    0.600 m/s
   Turbulence scale                                 =   42.000 m
   u-component integral scale                       =  340.200 m
   Coherency scale                                  =  340.200 m
   Characteristic value of hub turbulence intensity =    6.000%
   Gradient Richardson number                       =    0.000

   Wind profile type                                =  Linear interpolation of user-defined profile
   Equivalent power law exponent (upper rotor disk) =    0.000
   Mean shear across rotor disk                     =    0.000 (m/s)/m
   Assumed rotor diameter                           =  353.400 m
   Surface roughness length                         =    0.030 m

   Nyquist frequency of turbulent wind field        =    2.000 Hz

   Number of time steps in the FFT                  =     3600
   Number of time steps output                      =     3600
   Number of points simulated                       =     7527


Mean Flow Angles:

   Vertical   =   0.0 degrees
   Horizontal =   0.0 degrees

Mean Wind Speed Profile:

   Height    Wind Speed   Horizontal Angle  Vertical Angle  U-comp (X)   V-comp (Y)   W-comp (Z)
     (m)        (m/s)         (degrees)       (degrees)       (m/s)        (m/s)        (m/s)   
   ------    ----------   ----------------  --------------  ----------   ----------   ----------
    354.4       10.00          318.19            0.00          7.45        -6.67         0.00
    345.1       10.00          319.51            0.00          7.60        -6.49         0.00
    335.8       10.00          320.98            0.00          7.77        -6.30         0.00
    326.5       10.00          322.46            0.00          7.93        -6.09         0.00
    317.2       10.00          323.94            0.00          8.08        -5.89         0.00
    307.9       10.00          325.41            0.00          8.23        -5.68         0.00
    298.6       10.00          326.89            0.00          8.38        -5.46         0.00
    289.3       10.00          328.37            0.00          8.51        -5.25         0.00
    280.0       10.00          329.84            0.00          8.65        -5.02         0.00
    270.7       10.00          331.32            0.00          8.77        -4.80         0.00
    261.4       10.00          332.79            0.00          8.89        -4.57         0.00
    252.1       10.00          334.27            0.00          9.01        -4.34         0.00
    242.8       10.00          335.75            0.00          9.12        -4.11         0.00
    233.5       10.00          337.22            0.00          9.22        -3.87         0.00
    224.2       10.00          338.70            0.00          9.32        -3.63         0.00
    214.9       10.00          340.17            0.00          9.41        -3.39         0.00
    205.6       10.00          341.65            0.00          9.49        -3.15         0.00
    196.3       10.00          343.13            0.00          9.57        -2.90         0.00
    187.0       10.00          344.60            0.00          9.64        -2.66         0.00
    177.7       10.00          346.08            0.00          9.71        -2.41         0.00
    168.4       10.00          347.56            0.00          9.77        -2.15         0.00
    159.1       10.00          349.03            0.00          9.82        -1.90         0.00
    149.8       10.00          350.51            0.00          9.86        -1.65         0.00
    140.5       10.00          351.98            0.00          9.90        -1.39         0.00
    131.2       10.00          353.46            0.00          9.93        -1.14         0.00
    121.9       10.00          354.94            0.00          9.96        -0.88         0.00
    112.6       10.00          356.41            0.00          9.98        -0.63         0.00
    103.3       10.00          357.89            0.00          9.99        -0.37         0.00
     94.0       10.00          359.37            0.00         10.00        -0.11         0.00
     84.7       10.00          360.84            0.00         10.00         0.15         0.00
     75.4       10.00          362.32            0.00          9.99         0.40         0.00
     66.1       10.00            3.79            0.00          9.98         0.66         0.00
     56.8       10.00            5.27            0.00          9.96         0.92         0.00
     47.5       10.00            6.75            0.00          9.93         1.17         0.00
     38.2       10.00            8.22            0.00          9.90         1.43         0.00
     28.9       10.00            9.70            0.00          9.86         1.68         0.00
     19.6       10.00           11.17            0.00          9.81         1.94         0.00
     10.3       10.00           12.65            0.00          9.76         2.19         0.00
      1.0       10.00           14.13            0.00          9.70         2.44         0.00


Harvested Random Seeds after Generation of the Random Numbers:

    377667225 K 1
            0 K 2


Hub-Height Simulated Turbulence Statistical Summary:

   Type of Wind        Min (m/s)   Mean (m/s)    Max (m/s)  Sigma (m/s)       TI (%)
   ----------------    ---------   ----------    ---------  -----------       ------
   Longitudinal (u)         7.91        10.00        11.88        0.607        6.072
   Lateral (v)             -1.44         0.00         1.78        0.464        4.644
   Vertical (w)            -0.95         0.00         0.84        0.272        2.721
   U component              7.46         9.71        11.52        0.616        6.347
   V component             -3.70        -2.41        -0.73        0.453        4.663
   W component             -0.95         0.00         0.84        0.272        2.803
   Horizontal (U&V)         7.96        10.01        11.88        0.606        6.053
   Total                    7.96        10.01        11.88        0.605        6.046

                       Min Reynolds     Mean Reynolds    Max Reynolds    Correlation
   Product             Stress (m/s)^2   Stress (m/s)^2   Stress (m/s)^2  Coefficient
   ----------------    --------------   --------------   --------------  -----------
   u'w'                     -1.197             0.006             1.214         0.038
   u'v'                     -1.486             0.042             2.134         0.149
   v'w'                     -0.902            -0.004             0.716        -0.031


   Friction Velocity (Ustar)  =      0.080 m/s
   Maximum Instantaneous TKE  =      2.593 (m/s)^2
   Maximum Instantaneous CTKE =      1.241 (m/s)^2


Grid Point Variance Summary:

   Y-coord -892.80 -883.50 -874.20 -864.90 -855.60 -846.30 -837.00 -827.70 -818.40 -809.10 -799.80 -790.50 -781.20 -771.90 -762.60 -753.30 -744.00 -734.70 -725.40 -716.10 -706.80 -697.50 -688.20 -678.90 -669.60 -660.30 -651.00 -641.70 -632.40 -623.10 -613.80 -604.50 -595.20 -585.90 -576.60 -567.30 -558.00 -548.70 -539.40 -530.10 -520.80 -511.50 -502.20 -492.90 -483.60 -474.30 -465.00 -455.70 -446.40 -437.10 -427.80 -418.50 -409.20 -399.90 -390.60 -381.30 -372.00 -362.70 -353.40 -344.10 -334.80 -325.50 -316.20 -306.90 -297.60 -288.30 -279.00 -269.70 -260.40 -251.10 -241.80 -232.50 -223.20 -213.90 -204.60 -195.30 -186.00 -176.70 -167.40 -158.10 -148.80 -139.50 -130.20 -120.90 -111.60 -102.30  -93.00  -83.70  -74.40  -65.10  -55.80  -46.50  -37.20  -27.90  -18.60   -9.30    0.00    9.30   18.60   27.90   37.20   46.50   55.80   65.10   74.40   83.70   93.00  102.30  111.60  120.90  130.20  139.50  148.80  158.10  167.40  176.70  186.00  195.30  204.60  213.90  223.20  232.50  241.80  251.10  260.40  269.70  279.00  288.30  297.60  306.90  316.20  325.50  334.80  344.10  353.40  362.70  372.00  381.30  390.60  399.90  409.20  418.50  427.80  437.10  446.40  455.70  465.00  474.30  483.60  492.90  502.20  511.50  520.80  530.10  539.40  548.70  558.00  567.30  576.60  585.90  595.20  604.50  613.80  623.10  632.40  641.70  651.00  660.30  669.60  678.90  688.20  697.50  706.80  716.10  725.40  734.70  744.00  753.30  762.60  771.90  781.20  790.50  799.80  809.10  818.40  827.70  837.00  846.30  855.60  864.90  874.20  883.50  892.80

   Height   Standard deviation at grid points for the u component:
   354.40    0.526   0.522   0.571   0.567   0.587   0.593   0.564   0.520   0.525   0.516   0.520   0.535   0.553   0.556   0.594   0.577   0.567   0.603   0.597   0.573   0.597   0.623   0.610   0.587   0.554   0.526   0.542   0.609   0.632   0.627   0.588   0.583   0.589   0.585   0.541   0.548   0.583   0.565   0.579   0.535   0.544   0.593   0.519   0.575   0.588   0.590   0.611   0.568   0.584   0.586   0.599   0.580   0.572   0.555   0.554   0.534   0.533   0.572   0.546   0.526   0.500   0.493   0.542   0.505   0.506   0.553   0.516   0.537   0.519   0.495   0.540   0.571   0.534   0.524   0.558   0.546   0.524   0.519   0.548   0.577   0.583   0.649   0.618   0.557   0.578   0.543   0.541   0.609   0.566   0.561   0.551   0.560   0.596   0.605   0.621   0.608   0.608   0.588   0.579   0.562   0.540   0.539   0.510   0.537   0.504   0.505   0.497   0.515   0.469   0.494   0.460   0.489   0.480   0.518   0.519   0.536   0.523   0.515   0.532   0.579   0.591   0.575   0.563   0.588   0.531   0.485   0.483   0.446   0.505   0.495   0.499   0.492   0.454   0.479   0.487   0.462   0.466   0.481   0.525   0.578   0.589   0.595   0.562   0.582   0.597   0.558   0.551   0.612   0.602   0.577   0.605   0.541   0.545   0.514   0.546   0.526   0.581   0.618   0.627   0.628   0.656   0.658   0.682   0.700   0.717   0.728   0.791   0.725   0.795   0.832   0.819   0.785   0.716   0.751   0.762   0.735   0.745   0.702   0.687   0.680   0.694   0.680   0.691   0.710   0.680   0.679   0.714   0.711   0.697   0.648   0.658   0.618   0.650
   345.10    0.545   0.552   0.572   0.559   0.560   0.578   0.560   0.529   0.508   0.547   0.579   0.530   0.552   0.588   0.582   0.610   0.578   0.628   0.629   0.595   0.590   0.550   0.578   0.605   0.582   0.566   0.601   0.610   0.637   0.631   0.604   0.605   0.586   0.585   0.601   0.550   0.536   0.553   0.544   0.535   0.522   0.534   0.537   0.562   0.575   0.591   0.641   0.607   0.580   0.561   0.546   0.609   0.557   0.545   0.579   0.555   0.567   0.608   0.558   0.522   0.470   0.490   0.510   0.510   0.534   0.533   0.540   0.533   0.519   0.496   0.544   0.542   0.525   0.536   0.556   0.557   0.543   0.570   0.572   0.529   0.593   0.613   0.592   0.577   0.574   0.529   0.553   0.568   0.572   0.568   0.578   0.531   0.573   0.568   0.589   0.611   0.629   0.610   0.564   0.550   0.523   0.503   0.483   0.497   0.499   0.462   0.466   0.459   0.454   0.468   0.467   0.503   0.503   0.523   0.532   0.549   0.551   0.550   0.565   0.592   0.606   0.588   0.562   0.563   0.533   0.497   0.479   0.447   0.470   0.501   0.496   0.499   0.497   0.491   0.517   0.460   0.461   0.517   0.506   0.553   0.581   0.554   0.567   0.590   0.580   0.519   0.543   0.565   0.536   0.570   0.580   0.562   0.536   0.572   0.579   0.613   0.604   0.646   0.652   0.682   0.679   0.657   0.653   0.671   0.712   0.702   0.734   0.726   0.780   0.834   0.830   0.789   0.732   0.732   0.808   0.776   0.733   0.739   0.752   0.691   0.697   0.709   0.738   0.724   0.704   0.681   0.692   0.665   0.649   0.630   0.650   0.643   0.663
   335.80    0.557   0.527   0.521   0.522   0.527   0.547   0.560   0.513   0.501   0.557   0.565   0.593   0.583   0.577   0.588   0.604   0.607   0.626   0.643   0.609   0.560   0.606   0.617   0.607   0.611   0.603   0.613   0.606   0.595   0.621   0.610   0.604   0.582   0.632   0.588   0.557   0.528   0.487   0.466   0.496   0.548   0.538   0.534   0.500   0.555   0.578   0.593   0.593   0.564   0.564   0.526   0.553   0.556   0.567   0.586   0.590   0.597   0.577   0.522   0.504   0.506   0.493   0.511   0.501   0.518   0.507   0.525   0.561   0.536   0.570   0.542   0.483   0.527   0.553   0.556   0.539   0.541   0.555   0.548   0.543   0.543   0.595   0.588   0.556   0.524   0.533   0.537   0.524   0.529   0.574   0.553   0.546   0.548   0.551   0.596   0.597   0.588   0.591   0.558   0.519   0.519   0.502   0.477   0.442   0.499   0.471   0.462   0.478   0.490   0.457   0.463   0.493   0.509   0.511   0.501   0.529   0.591   0.611   0.612   0.597   0.590   0.564   0.567   0.587   0.537   0.503   0.521   0.489   0.476   0.472   0.476   0.497   0.508   0.534   0.516   0.510   0.482   0.532   0.511   0.532   0.548   0.555   0.591   0.556   0.570   0.541   0.543   0.567   0.585   0.567   0.588   0.553   0.599   0.581   0.603   0.603   0.635   0.637   0.634   0.697   0.700   0.658   0.636   0.680   0.753   0.729   0.719   0.749   0.749   0.787   0.765   0.774   0.801   0.813   0.842   0.847   0.772   0.763   0.720   0.735   0.721   0.728   0.732   0.686   0.705   0.742   0.708   0.687   0.640   0.674   0.655   0.650   0.653
   326.50    0.522   0.533   0.507   0.530   0.520   0.514   0.485   0.507   0.488   0.506   0.559   0.595   0.611   0.574   0.565   0.549   0.592   0.648   0.633   0.622   0.606   0.592   0.646   0.642   0.653   0.609   0.600   0.610   0.616   0.659   0.657   0.615   0.583   0.616   0.632   0.544   0.483   0.454   0.461   0.470   0.509   0.531   0.573   0.518   0.533   0.557   0.562   0.544   0.542   0.555   0.508   0.549   0.546   0.549   0.589   0.649   0.602   0.569   0.527   0.518   0.503   0.522   0.506   0.484   0.483   0.491   0.545   0.557   0.550   0.570   0.541   0.520   0.539   0.552   0.549   0.550   0.540   0.529   0.520   0.547   0.532   0.546   0.548   0.545   0.550   0.517   0.541   0.549   0.557   0.546   0.557   0.535   0.555   0.571   0.567   0.593   0.572   0.594   0.547   0.528   0.522   0.542   0.498   0.453   0.473   0.477   0.465   0.481   0.492   0.492   0.470   0.472   0.479   0.487   0.525   0.531   0.549   0.571   0.569   0.580   0.572   0.568   0.586   0.586   0.540   0.586   0.566   0.525   0.482   0.461   0.472   0.509   0.519   0.524   0.542   0.528   0.513   0.527   0.470   0.479   0.518   0.546   0.534   0.534   0.488   0.510   0.553   0.556   0.569   0.557   0.555   0.552   0.556   0.600   0.604   0.621   0.646   0.651   0.645   0.658   0.689   0.659   0.645   0.688   0.712   0.723   0.716   0.793   0.787   0.717   0.717   0.752   0.794   0.807   0.781   0.781   0.766   0.740   0.744   0.777   0.780   0.790   0.757   0.715   0.727   0.752   0.721   0.706   0.678   0.665   0.707   0.702   0.652
   317.20    0.515   0.521   0.496   0.521   0.537   0.549   0.523   0.485   0.526   0.528   0.525   0.568   0.615   0.642   0.573   0.579   0.592   0.616   0.620   0.619   0.629   0.617   0.633   0.645   0.617   0.606   0.595   0.578   0.635   0.667   0.626   0.577   0.573   0.613   0.618   0.526   0.474   0.466   0.435   0.432   0.444   0.492   0.519   0.515   0.501   0.526   0.551   0.552   0.531   0.557   0.537   0.545   0.532   0.535   0.559   0.623   0.611   0.543   0.537   0.510   0.497   0.523   0.500   0.509   0.502   0.491   0.518   0.536   0.515   0.510   0.524   0.521   0.545   0.533   0.558   0.538   0.546   0.570   0.522   0.514   0.524   0.560   0.559   0.519   0.517   0.522   0.548   0.552   0.534   0.559   0.558   0.599   0.542   0.542   0.581   0.565   0.571   0.583   0.535   0.591   0.529   0.537   0.515   0.517   0.537   0.525   0.502   0.483   0.484   0.502   0.502   0.514   0.488   0.513   0.558   0.562   0.546   0.572   0.594   0.595   0.606   0.601   0.587   0.594   0.585   0.588   0.573   0.536   0.472   0.450   0.463   0.480   0.491   0.542   0.549   0.541   0.528   0.492   0.509   0.513   0.519   0.557   0.541   0.533   0.507   0.539   0.577   0.558   0.524   0.558   0.565   0.547   0.574   0.601   0.557   0.544   0.595   0.621   0.659   0.662   0.668   0.623   0.681   0.694   0.680   0.685   0.691   0.739   0.754   0.732   0.688   0.738   0.755   0.773   0.742   0.749   0.750   0.725   0.715   0.751   0.743   0.770   0.766   0.759   0.719   0.721   0.764   0.772   0.702   0.730   0.718   0.740   0.663
   307.90    0.563   0.541   0.511   0.508   0.512   0.508   0.509   0.523   0.514   0.518   0.549   0.562   0.580   0.665   0.615   0.607   0.660   0.598   0.619   0.623   0.639   0.650   0.652   0.673   0.650   0.585   0.618   0.602   0.637   0.589   0.608   0.592   0.534   0.569   0.548   0.511   0.469   0.452   0.451   0.440   0.455   0.478   0.462   0.482   0.503   0.560   0.564   0.565   0.563   0.569   0.576   0.589   0.556   0.555   0.538   0.572   0.545   0.497   0.542   0.555   0.560   0.511   0.516   0.495   0.498   0.470   0.486   0.507   0.531   0.519   0.533   0.507   0.528   0.529   0.549   0.537   0.533   0.565   0.561   0.553   0.526   0.571   0.553   0.543   0.516   0.512   0.572   0.561   0.603   0.621   0.605   0.608   0.589   0.574   0.552   0.567   0.566   0.553   0.566   0.515   0.513   0.526   0.524   0.527   0.510   0.494   0.471   0.465   0.469   0.512   0.463   0.501   0.506   0.483   0.541   0.536   0.553   0.602   0.586   0.594   0.593   0.574   0.558   0.572   0.595   0.610   0.606   0.574   0.549   0.505   0.498   0.528   0.525   0.532   0.540   0.533   0.518   0.486   0.486   0.484   0.535   0.538   0.542   0.530   0.568   0.543   0.537   0.556   0.569   0.549   0.563   0.532   0.586   0.597   0.586   0.554   0.556   0.584   0.611   0.632   0.625   0.658   0.676   0.707   0.710   0.695   0.681   0.695   0.742   0.710   0.664   0.716   0.744   0.721   0.712   0.702   0.716   0.735   0.718   0.729   0.703   0.741   0.767   0.735   0.714   0.739   0.731   0.756   0.725   0.704   0.686   0.677   0.666
   298.60    0.549   0.537   0.538   0.504   0.483   0.531   0.532   0.585   0.542   0.552   0.527   0.572   0.597   0.607   0.619   0.669   0.673   0.592   0.611   0.643   0.680   0.646   0.632   0.606   0.613   0.581   0.552   0.569   0.593   0.576   0.563   0.549   0.507   0.516   0.538   0.470   0.487   0.449   0.427   0.451   0.501   0.520   0.472   0.503   0.511   0.520   0.540   0.506   0.530   0.565   0.585   0.572   0.522   0.527   0.519   0.520   0.516   0.504   0.556   0.554   0.527   0.504   0.539   0.508   0.512   0.504   0.502   0.510   0.495   0.492   0.498   0.478   0.489   0.532   0.543   0.539   0.530   0.530   0.558   0.576   0.544   0.552   0.554   0.538   0.508   0.511   0.573   0.604   0.599   0.614   0.570   0.562   0.590   0.559   0.567   0.562   0.560   0.550   0.503   0.504   0.525   0.530   0.520   0.518   0.493   0.481   0.446   0.473   0.476   0.490   0.498   0.466   0.515   0.507   0.495   0.523   0.547   0.554   0.556   0.521   0.578   0.555   0.571   0.573   0.559   0.600   0.601   0.532   0.570   0.565   0.551   0.560   0.553   0.504   0.500   0.508   0.523   0.481   0.493   0.512   0.549   0.557   0.514   0.536   0.503   0.515   0.523   0.526   0.566   0.555   0.543   0.576   0.592   0.576   0.591   0.585   0.592   0.585   0.572   0.619   0.627   0.646   0.668   0.698   0.702   0.682   0.671   0.642   0.646   0.669   0.672   0.677   0.706   0.664   0.685   0.701   0.711   0.725   0.693   0.719   0.724   0.747   0.723   0.756   0.759   0.733   0.701   0.701   0.688   0.683   0.678   0.658   0.652
   289.30    0.535   0.520   0.498   0.549   0.543   0.555   0.529   0.541   0.523   0.547   0.552   0.565   0.567   0.569   0.630   0.646   0.643   0.639   0.606   0.641   0.643   0.641   0.638   0.595   0.620   0.604   0.559   0.547   0.559   0.545   0.521   0.523   0.479   0.501   0.487   0.459   0.470   0.446   0.449   0.469   0.466   0.477   0.479   0.485   0.510   0.501   0.495   0.511   0.531   0.537   0.544   0.537   0.496   0.481   0.502   0.502   0.544   0.550   0.568   0.545   0.505   0.551   0.547   0.521   0.529   0.511   0.512   0.525   0.520   0.501   0.467   0.473   0.482   0.531   0.531   0.517   0.518   0.549   0.566   0.536   0.557   0.544   0.494   0.501   0.503   0.505   0.561   0.578   0.593   0.580   0.532   0.546   0.523   0.554   0.566   0.552   0.579   0.538   0.560   0.573   0.553   0.535   0.540   0.546   0.537   0.469   0.483   0.496   0.462   0.499   0.525   0.508   0.518   0.532   0.515   0.509   0.532   0.538   0.541   0.551   0.559   0.555   0.551   0.566   0.534   0.566   0.592   0.560   0.571   0.557   0.553   0.570   0.585   0.561   0.491   0.493   0.504   0.483   0.495   0.544   0.543   0.544   0.508   0.503   0.531   0.516   0.502   0.537   0.542   0.561   0.540   0.560   0.577   0.552   0.550   0.572   0.568   0.601   0.626   0.608   0.601   0.643   0.665   0.655   0.654   0.642   0.609   0.618   0.602   0.603   0.626   0.622   0.648   0.649   0.672   0.709   0.716   0.718   0.699   0.716   0.724   0.766   0.767   0.781   0.749   0.694   0.654   0.677   0.630   0.664   0.667   0.631   0.609
   280.00    0.524   0.564   0.548   0.584   0.548   0.535   0.487   0.514   0.519   0.519   0.518   0.578   0.596   0.577   0.632   0.629   0.620   0.581   0.620   0.610   0.620   0.615   0.622   0.594   0.590   0.583   0.536   0.553   0.562   0.563   0.545   0.527   0.489   0.489   0.495   0.492   0.496   0.500   0.477   0.437   0.443   0.476   0.483   0.520   0.518   0.500   0.505   0.525   0.513   0.497   0.504   0.473   0.482   0.488   0.476   0.509   0.534   0.552   0.564   0.559   0.505   0.514   0.523   0.528   0.524   0.506   0.510   0.535   0.527   0.527   0.484   0.489   0.495   0.514   0.510   0.541   0.522   0.552   0.532   0.556   0.571   0.551   0.497   0.511   0.512   0.509   0.555   0.577   0.574   0.595   0.561   0.539   0.535   0.543   0.575   0.573   0.566   0.561   0.574   0.569   0.578   0.575   0.543   0.547   0.511   0.509   0.492   0.482   0.485   0.529   0.516   0.521   0.537   0.537   0.528   0.531   0.537   0.519   0.539   0.557   0.555   0.566   0.563   0.565   0.573   0.585   0.603   0.571   0.555   0.540   0.578   0.575   0.564   0.519   0.491   0.479   0.494   0.497   0.547   0.481   0.506   0.527   0.489   0.500   0.523   0.535   0.514   0.541   0.549   0.564   0.544   0.531   0.531   0.577   0.631   0.609   0.612   0.614   0.644   0.614   0.603   0.613   0.634   0.615   0.612   0.630   0.624   0.607   0.593   0.599   0.595   0.623   0.612   0.666   0.698   0.715   0.692   0.697   0.718   0.705   0.742   0.768   0.773   0.773   0.750   0.692   0.664   0.595   0.618   0.626   0.666   0.625   0.600
   270.70    0.529   0.564   0.584   0.570   0.568   0.566   0.481   0.513   0.537   0.527   0.532   0.574   0.587   0.614   0.600   0.601   0.612   0.609   0.602   0.611   0.630   0.627   0.580   0.577   0.567   0.571   0.553   0.535   0.552   0.532   0.506   0.503   0.491   0.474   0.484   0.494   0.464   0.474   0.490   0.474   0.449   0.467   0.476   0.498   0.521   0.540   0.537   0.534   0.526   0.469   0.468   0.448   0.479   0.482   0.499   0.541   0.532   0.571   0.573   0.536   0.518   0.502   0.494   0.517   0.534   0.521   0.515   0.520   0.523   0.528   0.494   0.471   0.489   0.516   0.532   0.536   0.529   0.542   0.525   0.537   0.553   0.529   0.513   0.511   0.513   0.513   0.569   0.590   0.602   0.585   0.568   0.534   0.533   0.519   0.544   0.583   0.579   0.534   0.523   0.565   0.597   0.559   0.539   0.562   0.541   0.508   0.518   0.482   0.497   0.514   0.551   0.550   0.593   0.537   0.514   0.507   0.519   0.537   0.556   0.566   0.580   0.554   0.590   0.569   0.547   0.598   0.619   0.571   0.556   0.563   0.598   0.552   0.563   0.528   0.476   0.465   0.491   0.511   0.543   0.496   0.513   0.504   0.506   0.504   0.545   0.562   0.511   0.573   0.603   0.619   0.600   0.572   0.573   0.604   0.632   0.655   0.660   0.627   0.621   0.625   0.604   0.609   0.587   0.618   0.614   0.595   0.589   0.572   0.557   0.586   0.580   0.580   0.610   0.621   0.646   0.652   0.677   0.699   0.683   0.706   0.684   0.714   0.724   0.739   0.757   0.731   0.676   0.664   0.673   0.675   0.626   0.613   0.604
   261.40    0.592   0.561   0.576   0.594   0.594   0.549   0.530   0.570   0.535   0.508   0.536   0.531   0.526   0.571   0.595   0.610   0.612   0.652   0.618   0.608   0.582   0.564   0.568   0.566   0.576   0.568   0.512   0.502   0.495   0.515   0.531   0.500   0.512   0.499   0.455   0.447   0.474   0.483   0.464   0.467   0.455   0.448   0.478   0.535   0.526   0.494   0.500   0.507   0.518   0.503   0.474   0.511   0.528   0.477   0.475   0.592   0.567   0.581   0.569   0.554   0.533   0.516   0.497   0.511   0.558   0.554   0.542   0.510   0.470   0.488   0.523   0.468   0.515   0.526   0.498   0.524   0.552   0.511   0.535   0.542   0.570   0.577   0.553   0.558   0.533   0.581   0.588   0.602   0.568   0.569   0.602   0.557   0.552   0.552   0.530   0.557   0.550   0.542   0.543   0.579   0.579   0.563   0.544   0.520   0.525   0.546   0.551   0.516   0.529   0.512   0.542   0.519   0.550   0.570   0.528   0.473   0.529   0.517   0.592   0.592   0.570   0.568   0.564   0.553   0.556   0.566   0.556   0.560   0.577   0.557   0.588   0.566   0.532   0.532   0.493   0.452   0.508   0.493   0.512   0.547   0.524   0.521   0.512   0.512   0.543   0.526   0.522   0.594   0.649   0.609   0.656   0.634   0.607   0.631   0.702   0.705   0.668   0.632   0.631   0.617   0.582   0.614   0.616   0.625   0.590   0.577   0.567   0.553   0.599   0.598   0.582   0.578   0.618   0.597   0.618   0.653   0.679   0.694   0.665   0.683   0.689   0.698   0.701   0.703   0.716   0.677   0.678   0.653   0.659   0.664   0.579   0.578   0.592
   252.10    0.603   0.578   0.564   0.558   0.570   0.575   0.564   0.553   0.565   0.525   0.549   0.552   0.515   0.543   0.575   0.622   0.593   0.601   0.654   0.613   0.585   0.587   0.566   0.564   0.554   0.538   0.500   0.494   0.475   0.493   0.509   0.512   0.493   0.479   0.474   0.473   0.477   0.508   0.520   0.507   0.489   0.477   0.495   0.495   0.517   0.522   0.526   0.524   0.513   0.526   0.504   0.524   0.510   0.493   0.524   0.570   0.614   0.650   0.588   0.544   0.530   0.532   0.488   0.500   0.500   0.537   0.522   0.501   0.474   0.480   0.493   0.478   0.489   0.476   0.519   0.533   0.522   0.510   0.505   0.546   0.571   0.564   0.556   0.602   0.583   0.589   0.603   0.600   0.588   0.595   0.579   0.582   0.567   0.553   0.530   0.560   0.543   0.530   0.522   0.537   0.574   0.552   0.527   0.532   0.557   0.577   0.564   0.562   0.568   0.533   0.529   0.537   0.516   0.539   0.501   0.520   0.546   0.542   0.556   0.586   0.580   0.587   0.585   0.518   0.528   0.538   0.565   0.539   0.558   0.571   0.553   0.534   0.518   0.540   0.544   0.485   0.508   0.502   0.517   0.498   0.519   0.533   0.524   0.521   0.577   0.572   0.529   0.564   0.619   0.592   0.612   0.629   0.610   0.666   0.691   0.698   0.712   0.639   0.611   0.583   0.594   0.595   0.582   0.575   0.603   0.605   0.625   0.588   0.619   0.625   0.593   0.601   0.604   0.593   0.588   0.596   0.656   0.687   0.653   0.658   0.665   0.704   0.721   0.645   0.685   0.661   0.640   0.667   0.679   0.606   0.610   0.581   0.569
   242.80    0.566   0.569   0.567   0.572   0.539   0.560   0.572   0.569   0.569   0.579   0.577   0.583   0.563   0.556   0.581   0.585   0.601   0.580   0.623   0.607   0.560   0.583   0.611   0.614   0.545   0.536   0.536   0.550   0.483   0.509   0.497   0.512   0.470   0.474   0.489   0.514   0.536   0.525   0.525   0.547   0.504   0.533   0.519   0.541   0.522   0.527   0.555   0.542   0.537   0.550   0.507   0.522   0.538   0.542   0.513   0.542   0.609   0.635   0.632   0.534   0.568   0.515   0.510   0.507   0.498   0.491   0.485   0.519   0.475   0.472   0.466   0.472   0.524   0.502   0.512   0.523   0.534   0.548   0.519   0.546   0.592   0.588   0.603   0.614   0.561   0.574   0.568   0.584   0.614   0.577   0.536   0.544   0.569   0.579   0.588   0.612   0.570   0.549   0.561   0.549   0.574   0.582   0.577   0.548   0.553   0.567   0.594   0.576   0.580   0.565   0.538   0.585   0.563   0.561   0.556   0.533   0.549   0.536   0.527   0.569   0.573   0.574   0.594   0.560   0.546   0.557   0.555   0.555   0.546   0.574   0.545   0.510   0.524   0.509   0.515   0.529   0.515   0.545   0.519   0.533   0.514   0.544   0.551   0.558   0.571   0.513   0.545   0.546   0.581   0.594   0.585   0.581   0.627   0.654   0.653   0.687   0.709   0.666   0.594   0.565   0.599   0.579   0.592   0.583   0.600   0.634   0.580   0.628   0.613   0.613   0.596   0.594   0.597   0.582   0.598   0.605   0.652   0.659   0.642   0.702   0.749   0.740   0.751   0.693   0.706   0.676   0.660   0.655   0.651   0.634   0.549   0.595   0.595
   233.50    0.614   0.601   0.607   0.543   0.526   0.535   0.563   0.565   0.596   0.556   0.585   0.619   0.624   0.562   0.571   0.553   0.599   0.601   0.620   0.579   0.586   0.546   0.605   0.582   0.548   0.515   0.537   0.551   0.519   0.517   0.521   0.525   0.488   0.479   0.527   0.532   0.561   0.535   0.571   0.590   0.550   0.559   0.516   0.535   0.515   0.537   0.517   0.535   0.530   0.529   0.510   0.486   0.517   0.528   0.549   0.568   0.592   0.615   0.590   0.525   0.533   0.511   0.473   0.475   0.473   0.487   0.465   0.492   0.474   0.486   0.487   0.471   0.491   0.492   0.494   0.520   0.563   0.548   0.538   0.570   0.572   0.571   0.582   0.572   0.556   0.536   0.572   0.600   0.605   0.544   0.514   0.558   0.580   0.615   0.609   0.625   0.563   0.534   0.554   0.541   0.594   0.587   0.577   0.537   0.548   0.555   0.565   0.555   0.577   0.587   0.600   0.623   0.609   0.629   0.571   0.552   0.513   0.507   0.534   0.528   0.553   0.537   0.520   0.527   0.487   0.497   0.560   0.589   0.590   0.603   0.551   0.552   0.528   0.531   0.543   0.520   0.539   0.475   0.495   0.512   0.516   0.500   0.516   0.549   0.552   0.501   0.542   0.523   0.551   0.547   0.519   0.599   0.637   0.661   0.660   0.703   0.665   0.714   0.644   0.607   0.578   0.580   0.606   0.632   0.651   0.630   0.611   0.638   0.600   0.556   0.615   0.590   0.603   0.590   0.601   0.650   0.663   0.684   0.697   0.699   0.739   0.710   0.720   0.693   0.693   0.669   0.645   0.659   0.676   0.607   0.595   0.603   0.601
   224.20    0.586   0.639   0.582   0.565   0.527   0.540   0.563   0.560   0.622   0.592   0.582   0.589   0.627   0.603   0.562   0.574   0.542   0.568   0.590   0.572   0.580   0.635   0.609   0.564   0.569   0.568   0.524   0.554   0.529   0.504   0.513   0.488   0.470   0.448   0.465   0.505   0.535   0.541   0.566   0.585   0.569   0.583   0.576   0.557   0.561   0.593   0.552   0.547   0.560   0.524   0.498   0.549   0.537   0.555   0.554   0.551   0.568   0.569   0.552   0.519   0.519   0.513   0.491   0.484   0.490   0.524   0.478   0.457   0.496   0.503   0.496   0.500   0.483   0.506   0.521   0.529   0.568   0.566   0.521   0.550   0.591   0.573   0.587   0.530   0.497   0.518   0.535   0.615   0.579   0.532   0.575   0.575   0.571   0.586   0.570   0.574   0.578   0.570   0.531   0.554   0.595   0.582   0.589   0.549   0.519   0.544   0.551   0.542   0.553   0.569   0.548   0.555   0.592   0.613   0.602   0.560   0.523   0.535   0.530   0.509   0.549   0.504   0.503   0.520   0.544   0.532   0.556   0.561   0.581   0.593   0.602   0.586   0.554   0.561   0.518   0.496   0.508   0.467   0.477   0.492   0.507   0.525   0.517   0.525   0.547   0.528   0.560   0.549   0.551   0.552   0.557   0.601   0.654   0.661   0.660   0.693   0.677   0.668   0.617   0.635   0.598   0.589   0.594   0.605   0.600   0.617   0.643   0.664   0.634   0.603   0.616   0.608   0.611   0.602   0.623   0.645   0.633   0.649   0.681   0.687   0.733   0.664   0.704   0.686   0.683   0.657   0.617   0.630   0.654   0.624   0.620   0.590   0.607
   214.90    0.632   0.636   0.569   0.511   0.521   0.500   0.551   0.565   0.573   0.568   0.568   0.578   0.576   0.522   0.518   0.502   0.502   0.513   0.520   0.496   0.545   0.572   0.604   0.581   0.581   0.549   0.552   0.548   0.518   0.462   0.462   0.461   0.469   0.474   0.489   0.486   0.486   0.546   0.545   0.599   0.585   0.609   0.605   0.611   0.576   0.577   0.548   0.545   0.527   0.524   0.552   0.548   0.550   0.532   0.517   0.546   0.557   0.566   0.551   0.509   0.528   0.509   0.516   0.511   0.499   0.510   0.510   0.474   0.453   0.488   0.492   0.522   0.493   0.472   0.460   0.520   0.558   0.586   0.539   0.543   0.567   0.571   0.568   0.536   0.483   0.532   0.548   0.581   0.567   0.588   0.540   0.592   0.553   0.573   0.548   0.575   0.554   0.548   0.536   0.547   0.581   0.573   0.575   0.573   0.520   0.576   0.594   0.553   0.535   0.551   0.535   0.570   0.605   0.605   0.612   0.589   0.571   0.520   0.528   0.535   0.507   0.493   0.478   0.521   0.553   0.565   0.557   0.557   0.549   0.585   0.577   0.616   0.573   0.541   0.524   0.509   0.523   0.495   0.485   0.503   0.535   0.527   0.544   0.556   0.531   0.529   0.545   0.567   0.604   0.596   0.586   0.597   0.646   0.649   0.649   0.648   0.668   0.662   0.618   0.609   0.620   0.582   0.588   0.599   0.617   0.637   0.647   0.646   0.690   0.624   0.598   0.588   0.624   0.638   0.611   0.629   0.600   0.637   0.662   0.688   0.665   0.675   0.686   0.694   0.671   0.664   0.638   0.644   0.651   0.601   0.571   0.580   0.600
   205.60    0.660   0.604   0.548   0.504   0.526   0.541   0.565   0.534   0.547   0.572   0.543   0.581   0.542   0.518   0.487   0.499   0.502   0.499   0.472   0.492   0.511   0.560   0.621   0.625   0.568   0.545   0.557   0.556   0.525   0.472   0.480   0.468   0.464   0.478   0.471   0.492   0.509   0.516   0.519   0.573   0.565   0.599   0.596   0.568   0.536   0.550   0.509   0.559   0.526   0.535   0.517   0.526   0.553   0.523   0.516   0.537   0.545   0.567   0.536   0.530   0.547   0.532   0.513   0.508   0.491   0.460   0.459   0.472   0.453   0.470   0.471   0.463   0.480   0.465   0.446   0.466   0.509   0.542   0.557   0.555   0.551   0.580   0.533   0.526   0.518   0.524   0.537   0.553   0.537   0.537   0.550   0.552   0.572   0.587   0.594   0.555   0.532   0.546   0.552   0.525   0.565   0.565   0.558   0.552   0.552   0.561   0.556   0.582   0.543   0.581   0.557   0.568   0.554   0.580   0.594   0.603   0.607   0.555   0.510   0.531   0.562   0.536   0.512   0.480   0.545   0.557   0.580   0.524   0.568   0.584   0.577   0.580   0.570   0.540   0.561   0.543   0.543   0.508   0.533   0.520   0.557   0.546   0.519   0.566   0.548   0.555   0.542   0.587   0.610   0.576   0.617   0.601   0.628   0.671   0.686   0.664   0.651   0.658   0.614   0.621   0.616   0.605   0.575   0.579   0.596   0.635   0.647   0.637   0.693   0.639   0.633   0.618   0.645   0.658   0.689   0.651   0.636   0.622   0.648   0.637   0.637   0.657   0.667   0.634   0.606   0.621   0.654   0.638   0.660   0.599   0.589   0.595   0.584
   196.30    0.637   0.615   0.584   0.562   0.559   0.549   0.559   0.558   0.592   0.585   0.545   0.577   0.530   0.506   0.521   0.522   0.524   0.490   0.525   0.540   0.529   0.568   0.592   0.621   0.596   0.553   0.576   0.581   0.553   0.508   0.494   0.514   0.504   0.449   0.430   0.475   0.520   0.517   0.515   0.537   0.555   0.558   0.582   0.565   0.543   0.541   0.511   0.556   0.527   0.491   0.498   0.518   0.518   0.496   0.506   0.538   0.533   0.567   0.534   0.578   0.574   0.520   0.510   0.503   0.495   0.486   0.464   0.490   0.452   0.470   0.441   0.454   0.457   0.477   0.466   0.478   0.494   0.492   0.494   0.510   0.520   0.535   0.536   0.559   0.552   0.521   0.543   0.555   0.528   0.531   0.506   0.532   0.550   0.554   0.561   0.541   0.556   0.540   0.578   0.551   0.542   0.561   0.562   0.551   0.550   0.580   0.571   0.549   0.513   0.512   0.538   0.559   0.571   0.596   0.590   0.572   0.586   0.540   0.534   0.531   0.552   0.545   0.513   0.521   0.536   0.546   0.547   0.529   0.554   0.564   0.551   0.580   0.598   0.554   0.579   0.578   0.554   0.551   0.505   0.519   0.522   0.510   0.545   0.529   0.570   0.578   0.578   0.616   0.642   0.613   0.611   0.617   0.655   0.684   0.733   0.709   0.694   0.641   0.616   0.637   0.632   0.594   0.608   0.570   0.599   0.595   0.657   0.655   0.657   0.641   0.633   0.665   0.654   0.704   0.731   0.677   0.624   0.608   0.599   0.620   0.606   0.632   0.603   0.575   0.566   0.612   0.619   0.640   0.635   0.598   0.567   0.592   0.554
   187.00    0.619   0.624   0.598   0.569   0.563   0.571   0.525   0.558   0.549   0.542   0.554   0.553   0.510   0.525   0.524   0.525   0.519   0.520   0.525   0.522   0.528   0.548   0.617   0.605   0.575   0.566   0.596   0.596   0.566   0.525   0.529   0.511   0.479   0.485   0.485   0.527   0.514   0.525   0.510   0.516   0.538   0.579   0.565   0.571   0.534   0.547   0.541   0.491   0.505   0.489   0.509   0.492   0.502   0.502   0.497   0.530   0.513   0.536   0.528   0.570   0.560   0.559   0.491   0.482   0.463   0.447   0.460   0.475   0.472   0.469   0.438   0.454   0.491   0.476   0.499   0.504   0.496   0.457   0.468   0.472   0.514   0.489   0.518   0.514   0.508   0.538   0.552   0.544   0.495   0.533   0.475   0.512   0.549   0.515   0.547   0.597   0.587   0.601   0.579   0.568   0.578   0.547   0.543   0.548   0.568   0.559   0.556   0.529   0.557   0.527   0.555   0.570   0.574   0.576   0.587   0.605   0.579   0.554   0.546   0.538   0.551   0.546   0.540   0.554   0.536   0.528   0.536   0.575   0.614   0.591   0.575   0.597   0.609   0.616   0.587   0.559   0.544   0.540   0.544   0.510   0.533   0.551   0.536   0.550   0.554   0.543   0.639   0.643   0.682   0.665   0.649   0.641   0.674   0.661   0.707   0.665   0.660   0.639   0.596   0.621   0.627   0.579   0.615   0.643   0.604   0.600   0.653   0.642   0.654   0.645   0.632   0.651   0.678   0.719   0.703   0.694   0.624   0.592   0.618   0.628   0.628   0.624   0.591   0.578   0.584   0.610   0.570   0.596   0.590   0.547   0.548   0.554   0.571
   177.70    0.598   0.592   0.582   0.566   0.557   0.558   0.544   0.569   0.566   0.569   0.519   0.504   0.523   0.527   0.517   0.503   0.521   0.507   0.526   0.557   0.569   0.585   0.626   0.653   0.606   0.631   0.579   0.566   0.580   0.542   0.542   0.512   0.515   0.527   0.541   0.495   0.508   0.484   0.473   0.496   0.535   0.554   0.563   0.548   0.545   0.547   0.523   0.492   0.492   0.493   0.486   0.480   0.501   0.486   0.510   0.521   0.531   0.496   0.521   0.554   0.546   0.544   0.523   0.470   0.467   0.441   0.447   0.481   0.497   0.527   0.470   0.481   0.511   0.505   0.498   0.515   0.510   0.485   0.483   0.499   0.494   0.505   0.497   0.512   0.529   0.509   0.550   0.536   0.529   0.506   0.490   0.536   0.535   0.561   0.587   0.630   0.607   0.596   0.589   0.585   0.521   0.548   0.557   0.549   0.552   0.588   0.559   0.555   0.517   0.508   0.550   0.557   0.561   0.539   0.590   0.565   0.560   0.603   0.583   0.558   0.569   0.604   0.559   0.560   0.551   0.509   0.516   0.556   0.610   0.600   0.585   0.596   0.630   0.599   0.581   0.586   0.610   0.586   0.537   0.551   0.564   0.534   0.561   0.547   0.544   0.554   0.600   0.661   0.632   0.645   0.683   0.696   0.680   0.696   0.677   0.620   0.662   0.581   0.566   0.587   0.623   0.614   0.650   0.632   0.652   0.647   0.657   0.639   0.675   0.654   0.665   0.654   0.647   0.686   0.667   0.626   0.632   0.572   0.625   0.624   0.618   0.605   0.564   0.547   0.550   0.552   0.598   0.578   0.572   0.562   0.524   0.530   0.557
   168.40    0.562   0.584   0.575   0.615   0.612   0.577   0.585   0.561   0.567   0.550   0.515   0.540   0.522   0.503   0.516   0.539   0.534   0.561   0.529   0.564   0.591   0.624   0.631   0.654   0.612   0.595   0.562   0.528   0.554   0.560   0.537   0.508   0.532   0.532   0.503   0.516   0.496   0.472   0.475   0.491   0.503   0.528   0.561   0.523   0.536   0.537   0.513   0.507   0.488   0.513   0.518   0.465   0.471   0.489   0.518   0.508   0.506   0.510   0.521   0.548   0.547   0.529   0.510   0.494   0.482   0.450   0.451   0.495   0.510   0.520   0.492   0.513   0.510   0.487   0.510   0.503   0.499   0.498   0.496   0.485   0.474   0.471   0.511   0.532   0.513   0.504   0.508   0.535   0.547   0.573   0.545   0.569   0.567   0.593   0.598   0.572   0.617   0.619   0.622   0.606   0.563   0.572   0.577   0.565   0.582   0.563   0.575   0.573   0.536   0.559   0.555   0.540   0.547   0.558   0.586   0.546   0.582   0.587   0.602   0.575   0.582   0.638   0.585   0.581   0.581   0.546   0.525   0.562   0.537   0.558   0.557   0.585   0.575   0.592   0.586   0.559   0.587   0.565   0.564   0.573   0.546   0.553   0.567   0.536   0.553   0.600   0.624   0.634   0.621   0.626   0.667   0.657   0.641   0.662   0.665   0.607   0.639   0.602   0.606   0.615   0.622   0.643   0.640   0.650   0.637   0.648   0.668   0.638   0.654   0.641   0.647   0.618   0.689   0.671   0.608   0.615   0.621   0.607   0.620   0.605   0.585   0.586   0.536   0.551   0.552   0.558   0.557   0.577   0.559   0.517   0.540   0.540   0.555
   159.10    0.562   0.565   0.548   0.600   0.581   0.553   0.578   0.537   0.552   0.489   0.521   0.549   0.521   0.539   0.492   0.520   0.478   0.500   0.540   0.560   0.632   0.631   0.571   0.596   0.626   0.611   0.556   0.542   0.544   0.555   0.551   0.533   0.487   0.534   0.527   0.500   0.483   0.504   0.505   0.496   0.503   0.515   0.533   0.531   0.547   0.549   0.525   0.481   0.518   0.514   0.513   0.527   0.482   0.506   0.506   0.512   0.496   0.555   0.553   0.538   0.508   0.568   0.520   0.501   0.485   0.495   0.480   0.502   0.506   0.531   0.496   0.484   0.490   0.515   0.483   0.508   0.503   0.478   0.476   0.489   0.489   0.445   0.490   0.541   0.512   0.535   0.514   0.553   0.533   0.550   0.582   0.577   0.560   0.566   0.593   0.591   0.632   0.624   0.629   0.574   0.555   0.550   0.548   0.582   0.596   0.564   0.582   0.596   0.578   0.562   0.543   0.533   0.577   0.579   0.559   0.572   0.575   0.560   0.568   0.560   0.604   0.617   0.605   0.590   0.555   0.577   0.563   0.550   0.542   0.553   0.616   0.627   0.594   0.608   0.574   0.555   0.582   0.570   0.593   0.594   0.600   0.577   0.568   0.519   0.581   0.619   0.589   0.602   0.606   0.620   0.628   0.632   0.619   0.618   0.624   0.596   0.595   0.622   0.621   0.578   0.579   0.589   0.582   0.618   0.613   0.630   0.655   0.584   0.600   0.601   0.592   0.596   0.625   0.647   0.628   0.611   0.579   0.560   0.567   0.546   0.540   0.553   0.522   0.544   0.545   0.576   0.569   0.557   0.534   0.566   0.542   0.560   0.542
   149.80    0.551   0.559   0.506   0.561   0.548   0.530   0.546   0.517   0.513   0.497   0.511   0.549   0.501   0.545   0.519   0.486   0.481   0.480   0.477   0.549   0.588   0.624   0.591   0.613   0.616   0.599   0.550   0.545   0.570   0.557   0.533   0.535   0.486   0.513   0.526   0.529   0.532   0.526   0.515   0.472   0.501   0.551   0.554   0.575   0.552   0.543   0.518   0.529   0.513   0.507   0.522   0.502   0.534   0.527   0.493   0.520   0.518   0.562   0.557   0.568   0.552   0.524   0.550   0.549   0.542   0.528   0.473   0.474   0.448   0.484   0.495   0.538   0.538   0.534   0.487   0.512   0.515   0.472   0.508   0.517   0.490   0.497   0.499   0.520   0.550   0.563   0.564   0.553   0.505   0.568   0.582   0.553   0.572   0.569   0.567   0.586   0.613   0.619   0.594   0.572   0.542   0.529   0.543   0.577   0.588   0.609   0.599   0.582   0.553   0.532   0.542   0.533   0.535   0.543   0.566   0.553   0.524   0.534   0.579   0.583   0.612   0.580   0.608   0.595   0.592   0.592   0.585   0.553   0.548   0.568   0.583   0.592   0.636   0.597   0.581   0.552   0.621   0.615   0.583   0.606   0.611   0.596   0.565   0.525   0.554   0.597   0.615   0.581   0.605   0.586   0.610   0.586   0.574   0.606   0.597   0.597   0.617   0.610   0.609   0.568   0.576   0.571   0.559   0.597   0.624   0.626   0.626   0.633   0.578   0.589   0.559   0.604   0.616   0.625   0.593   0.583   0.564   0.573   0.557   0.534   0.551   0.514   0.527   0.507   0.504   0.570   0.563   0.589   0.549   0.554   0.578   0.555   0.575
   140.50    0.559   0.553   0.530   0.531   0.521   0.516   0.550   0.483   0.519   0.472   0.491   0.517   0.512   0.505   0.490   0.450   0.485   0.442   0.460   0.488   0.532   0.573   0.579   0.599   0.582   0.563   0.533   0.553   0.536   0.544   0.499   0.542   0.535   0.554   0.539   0.537   0.542   0.527   0.518   0.527   0.515   0.544   0.525   0.557   0.539   0.496   0.512   0.512   0.542   0.506   0.517   0.502   0.521   0.543   0.535   0.554   0.588   0.579   0.560   0.561   0.560   0.562   0.557   0.538   0.564   0.568   0.514   0.471   0.438   0.474   0.489   0.521   0.535   0.567   0.480   0.492   0.501   0.510   0.492   0.541   0.555   0.503   0.559   0.581   0.582   0.584   0.601   0.549   0.540   0.569   0.553   0.552   0.531   0.571   0.576   0.539   0.590   0.585   0.578   0.558   0.599   0.599   0.590   0.525   0.563   0.596   0.584   0.567   0.538   0.515   0.534   0.520   0.520   0.533   0.542   0.533   0.565   0.562   0.565   0.582   0.551   0.596   0.604   0.594   0.565   0.600   0.578   0.554   0.566   0.546   0.570   0.591   0.611   0.607   0.641   0.655   0.666   0.640   0.632   0.645   0.622   0.607   0.589   0.582   0.592   0.617   0.600   0.582   0.583   0.575   0.577   0.542   0.543   0.601   0.590   0.599   0.615   0.601   0.577   0.560   0.536   0.539   0.598   0.570   0.600   0.613   0.614   0.597   0.558   0.585   0.595   0.557   0.564   0.573   0.583   0.565   0.546   0.531   0.526   0.522   0.530   0.508   0.524   0.490   0.518   0.565   0.556   0.573   0.553   0.532   0.533   0.590   0.581
   131.20    0.536   0.539   0.537   0.548   0.564   0.540   0.559   0.533   0.498   0.458   0.463   0.479   0.452   0.447   0.464   0.454   0.484   0.483   0.449   0.462   0.504   0.522   0.566   0.586   0.609   0.566   0.529   0.539   0.528   0.564   0.510   0.505   0.531   0.549   0.541   0.544   0.559   0.563   0.533   0.531   0.521   0.498   0.491   0.511   0.522   0.491   0.506   0.502   0.503   0.554   0.546   0.513   0.538   0.540   0.575   0.557   0.584   0.576   0.571   0.582   0.548   0.527   0.542   0.519   0.564   0.558   0.556   0.516   0.472   0.508   0.504   0.528   0.577   0.509   0.510   0.487   0.478   0.503   0.505   0.552   0.577   0.554   0.548   0.534   0.555   0.559   0.583   0.573   0.584   0.561   0.576   0.513   0.516   0.555   0.539   0.551   0.569   0.547   0.564   0.574   0.573   0.589   0.559   0.537   0.564   0.554   0.548   0.534   0.518   0.518   0.549   0.535   0.522   0.503   0.507   0.534   0.561   0.594   0.559   0.536   0.549   0.576   0.579   0.574   0.573   0.589   0.591   0.594   0.568   0.563   0.604   0.598   0.593   0.595   0.612   0.635   0.608   0.636   0.660   0.680   0.653   0.633   0.584   0.590   0.636   0.614   0.573   0.548   0.541   0.545   0.548   0.544   0.541   0.564   0.611   0.604   0.583   0.571   0.554   0.539   0.524   0.548   0.542   0.560   0.621   0.583   0.575   0.602   0.547   0.544   0.569   0.600   0.588   0.566   0.579   0.562   0.539   0.491   0.507   0.475   0.505   0.511   0.493   0.529   0.509   0.546   0.567   0.558   0.529   0.553   0.548   0.567   0.626
   121.90    0.545   0.545   0.568   0.593   0.573   0.524   0.537   0.534   0.467   0.453   0.433   0.455   0.483   0.434   0.427   0.443   0.490   0.485   0.485   0.483   0.492   0.512   0.531   0.584   0.596   0.575   0.607   0.581   0.594   0.571   0.589   0.536   0.508   0.527   0.551   0.563   0.545   0.540   0.549   0.556   0.534   0.526   0.524   0.507   0.518   0.528   0.527   0.559   0.557   0.539   0.521   0.543   0.547   0.557   0.586   0.589   0.570   0.544   0.556   0.579   0.559   0.533   0.491   0.521   0.524   0.558   0.528   0.489   0.488   0.490   0.511   0.518   0.546   0.565   0.535   0.524   0.506   0.500   0.516   0.559   0.548   0.554   0.549   0.527   0.521   0.528   0.563   0.551   0.576   0.602   0.568   0.537   0.543   0.543   0.523   0.532   0.523   0.548   0.535   0.558   0.582   0.585   0.584   0.536   0.519   0.557   0.534   0.532   0.538   0.517   0.518   0.528   0.496   0.488   0.510   0.527   0.548   0.562   0.532   0.522   0.546   0.548   0.555   0.541   0.543   0.567   0.558   0.570   0.583   0.594   0.624   0.612   0.570   0.578   0.660   0.653   0.630   0.645   0.657   0.633   0.598   0.595   0.605   0.610   0.610   0.595   0.561   0.539   0.559   0.539   0.537   0.537   0.512   0.560   0.572   0.553   0.549   0.526   0.540   0.556   0.555   0.570   0.544   0.560   0.562   0.564   0.550   0.548   0.514   0.514   0.555   0.596   0.597   0.598   0.599   0.573   0.543   0.484   0.468   0.454   0.491   0.474   0.504   0.501   0.507   0.527   0.526   0.561   0.562   0.547   0.575   0.601   0.634
   112.60    0.560   0.562   0.600   0.608   0.586   0.576   0.552   0.524   0.468   0.416   0.416   0.457   0.462   0.468   0.413   0.463   0.483   0.493   0.495   0.522   0.498   0.509   0.570   0.583   0.580   0.573   0.604   0.596   0.624   0.614   0.590   0.562   0.531   0.510   0.561   0.550   0.558   0.570   0.557   0.579   0.562   0.508   0.561   0.489   0.512   0.498   0.469   0.513   0.539   0.528   0.546   0.531   0.527   0.548   0.515   0.522   0.564   0.574   0.579   0.527   0.542   0.523   0.518   0.507   0.513   0.517   0.488   0.453   0.451   0.474   0.522   0.483   0.515   0.531   0.560   0.536   0.514   0.528   0.519   0.529   0.518   0.543   0.548   0.559   0.531   0.496   0.534   0.562   0.557   0.553   0.576   0.554   0.522   0.544   0.541   0.573   0.558   0.544   0.557   0.554   0.568   0.544   0.521   0.552   0.524   0.522   0.549   0.540   0.516   0.495   0.460   0.465   0.489   0.494   0.537   0.517   0.547   0.556   0.538   0.524   0.511   0.495   0.541   0.544   0.582   0.608   0.583   0.559   0.582   0.617   0.625   0.627   0.587   0.602   0.619   0.624   0.630   0.629   0.647   0.626   0.591   0.598   0.650   0.633   0.610   0.608   0.593   0.586   0.588   0.561   0.506   0.527   0.559   0.565   0.593   0.585   0.576   0.536   0.535   0.552   0.532   0.522   0.532   0.531   0.556   0.575   0.575   0.565   0.516   0.548   0.556   0.595   0.609   0.595   0.597   0.555   0.522   0.515   0.507   0.452   0.471   0.478   0.492   0.509   0.520   0.522   0.516   0.559   0.588   0.543   0.546   0.591   0.620
   103.30    0.533   0.528   0.573   0.605   0.622   0.547   0.547   0.524   0.506   0.488   0.490   0.524   0.488   0.466   0.452   0.463   0.469   0.470   0.490   0.496   0.505   0.576   0.571   0.560   0.568   0.607   0.599   0.639   0.638   0.584   0.579   0.513   0.523   0.535   0.532   0.519   0.515   0.553   0.566   0.560   0.522   0.555   0.496   0.535   0.525   0.555   0.516   0.510   0.535   0.542   0.523   0.522   0.518   0.530   0.520   0.495   0.537   0.533   0.570   0.536   0.520   0.518   0.535   0.520   0.493   0.524   0.492   0.447   0.487   0.499   0.566   0.553   0.527   0.539   0.555   0.521   0.520   0.544   0.539   0.483   0.532   0.550   0.564   0.568   0.554   0.519   0.491   0.525   0.505   0.519   0.518   0.508   0.506   0.538   0.574   0.564   0.560   0.515   0.556   0.548   0.563   0.569   0.484   0.528   0.514   0.520   0.518   0.504   0.464   0.455   0.469   0.440   0.457   0.517   0.535   0.537   0.555   0.571   0.543   0.538   0.565   0.533   0.526   0.578   0.621   0.612   0.576   0.572   0.617   0.607   0.596   0.608   0.610   0.583   0.610   0.608   0.615   0.625   0.593   0.651   0.617   0.609   0.656   0.622   0.606   0.626   0.632   0.621   0.568   0.574   0.550   0.539   0.553   0.596   0.605   0.561   0.606   0.612   0.590   0.547   0.550   0.496   0.525   0.536   0.545   0.569   0.568   0.572   0.549   0.559   0.524   0.552   0.586   0.568   0.575   0.555   0.534   0.479   0.482   0.472   0.487   0.492   0.510   0.529   0.512   0.510   0.501   0.524   0.555   0.554   0.555   0.552   0.574
    94.00    0.544   0.572   0.556   0.556   0.564   0.558   0.554   0.533   0.539   0.511   0.491   0.497   0.494   0.478   0.443   0.444   0.482   0.466   0.440   0.444   0.475   0.542   0.571   0.568   0.549   0.563   0.581   0.626   0.658   0.614   0.566   0.526   0.533   0.516   0.502   0.484   0.507   0.524   0.547   0.536   0.525   0.541   0.572   0.557   0.556   0.539   0.509   0.508   0.491   0.534   0.534   0.544   0.508   0.536   0.544   0.540   0.532   0.507   0.522   0.521   0.508   0.512   0.500   0.535   0.512   0.477   0.501   0.471   0.534   0.572   0.586   0.562   0.544   0.561   0.538   0.526   0.512   0.536   0.571   0.523   0.533   0.577   0.601   0.552   0.562   0.544   0.499   0.526   0.517   0.484   0.496   0.515   0.492   0.504   0.556   0.550   0.570   0.544   0.536   0.562   0.593   0.561   0.536   0.543   0.531   0.472   0.498   0.487   0.496   0.479   0.472   0.464   0.514   0.549   0.539   0.543   0.530   0.542   0.541   0.568   0.571   0.589   0.557   0.595   0.636   0.597   0.603   0.544   0.559   0.557   0.582   0.586   0.580   0.591   0.571   0.585   0.586   0.625   0.638   0.649   0.586   0.645   0.625   0.661   0.615   0.625   0.621   0.614   0.625   0.559   0.567   0.548   0.590   0.579   0.574   0.566   0.549   0.578   0.570   0.526   0.496   0.506   0.537   0.499   0.511   0.564   0.561   0.584   0.531   0.550   0.550   0.556   0.526   0.559   0.565   0.532   0.518   0.518   0.488   0.484   0.438   0.478   0.458   0.493   0.467   0.468   0.486   0.520   0.547   0.539   0.564   0.556   0.566
    84.70    0.539   0.556   0.548   0.570   0.591   0.592   0.569   0.530   0.507   0.535   0.522   0.482   0.486   0.443   0.442   0.461   0.456   0.457   0.484   0.494   0.542   0.557   0.577   0.601   0.584   0.604   0.578   0.618   0.637   0.628   0.556   0.553   0.530   0.542   0.533   0.500   0.508   0.488   0.539   0.541   0.519   0.533   0.532   0.560   0.524   0.498   0.508   0.548   0.555   0.523   0.569   0.560   0.559   0.539   0.558   0.564   0.504   0.504   0.495   0.487   0.492   0.466   0.492   0.514   0.535   0.506   0.490   0.492   0.523   0.553   0.585   0.567   0.605   0.531   0.495   0.493   0.495   0.552   0.564   0.547   0.522   0.546   0.563   0.538   0.540   0.553   0.550   0.534   0.492   0.458   0.457   0.505   0.479   0.529   0.540   0.559   0.573   0.565   0.551   0.573   0.572   0.572   0.506   0.525   0.506   0.509   0.482   0.495   0.510   0.531   0.492   0.505   0.524   0.529   0.509   0.488   0.502   0.500   0.524   0.540   0.563   0.603   0.571   0.588   0.653   0.631   0.601   0.570   0.528   0.581   0.554   0.554   0.550   0.593   0.575   0.583   0.594   0.581   0.622   0.620   0.613   0.642   0.605   0.646   0.612   0.658   0.622   0.611   0.577   0.567   0.554   0.564   0.617   0.632   0.608   0.590   0.557   0.577   0.587   0.515   0.480   0.521   0.514   0.497   0.551   0.561   0.524   0.542   0.559   0.555   0.550   0.554   0.546   0.521   0.531   0.524   0.535   0.545   0.529   0.490   0.510   0.491   0.486   0.500   0.503   0.511   0.502   0.518   0.528   0.534   0.525   0.542   0.537
    75.40    0.522   0.532   0.584   0.590   0.578   0.586   0.568   0.526   0.541   0.580   0.537   0.489   0.526   0.483   0.460   0.437   0.438   0.450   0.498   0.495   0.551   0.573   0.580   0.588   0.562   0.603   0.611   0.622   0.620   0.574   0.527   0.536   0.536   0.545   0.535   0.492   0.516   0.493   0.523   0.492   0.508   0.506   0.556   0.529   0.499   0.514   0.531   0.525   0.529   0.556   0.559   0.552   0.543   0.515   0.555   0.558   0.511   0.505   0.463   0.483   0.464   0.477   0.515   0.536   0.547   0.517   0.497   0.505   0.549   0.576   0.539   0.564   0.588   0.551   0.517   0.509   0.556   0.541   0.528   0.541   0.554   0.520   0.565   0.536   0.512   0.514   0.512   0.506   0.478   0.449   0.447   0.471   0.468   0.509   0.505   0.509   0.557   0.551   0.540   0.546   0.525   0.567   0.535   0.545   0.520   0.492   0.514   0.541   0.559   0.526   0.520   0.495   0.512   0.493   0.478   0.495   0.516   0.500   0.523   0.560   0.545   0.595   0.600   0.563   0.600   0.589   0.610   0.582   0.583   0.564   0.579   0.550   0.556   0.575   0.579   0.628   0.561   0.603   0.603   0.608   0.621   0.630   0.621   0.635   0.647   0.645   0.598   0.585   0.593   0.563   0.565   0.578   0.646   0.619   0.634   0.576   0.545   0.549   0.546   0.479   0.453   0.463   0.517   0.566   0.585   0.529   0.543   0.534   0.551   0.536   0.513   0.491   0.480   0.515   0.511   0.527   0.506   0.518   0.514   0.490   0.506   0.547   0.517   0.516   0.574   0.551   0.523   0.534   0.544   0.526   0.514   0.542   0.547
    66.10    0.567   0.539   0.547   0.540   0.542   0.589   0.565   0.555   0.543   0.532   0.553   0.550   0.496   0.456   0.468   0.482   0.484   0.479   0.491   0.564   0.571   0.577   0.586   0.597   0.595   0.592   0.605   0.616   0.620   0.563   0.503   0.549   0.546   0.532   0.505   0.505   0.487   0.494   0.483   0.499   0.514   0.537   0.559   0.551   0.533   0.559   0.511   0.563   0.528   0.541   0.550   0.539   0.547   0.551   0.560   0.520   0.545   0.488   0.501   0.494   0.482   0.481   0.554   0.523   0.567   0.547   0.518   0.514   0.538   0.562   0.564   0.538   0.575   0.536   0.529   0.530   0.551   0.539   0.540   0.549   0.547   0.563   0.558   0.520   0.525   0.510   0.506   0.495   0.498   0.462   0.476   0.499   0.496   0.531   0.537   0.525   0.525   0.539   0.547   0.530   0.536   0.521   0.522   0.513   0.518   0.500   0.548   0.551   0.569   0.567   0.539   0.481   0.470   0.467   0.485   0.480   0.512   0.520   0.589   0.572   0.581   0.598   0.600   0.584   0.585   0.601   0.582   0.556   0.552   0.578   0.597   0.588   0.581   0.588   0.593   0.600   0.584   0.583   0.622   0.625   0.635   0.648   0.651   0.641   0.608   0.618   0.610   0.603   0.570   0.576   0.578   0.563   0.636   0.614   0.609   0.587   0.529   0.516   0.495   0.468   0.437   0.492   0.502   0.566   0.561   0.541   0.539   0.540   0.558   0.515   0.492   0.478   0.492   0.561   0.547   0.567   0.533   0.523   0.556   0.515   0.548   0.570   0.546   0.522   0.548   0.532   0.509   0.507   0.512   0.519   0.524   0.471   0.520
    56.80    0.557   0.560   0.531   0.554   0.605   0.598   0.595   0.603   0.592   0.563   0.578   0.555   0.539   0.537   0.514   0.523   0.498   0.514   0.553   0.596   0.599   0.629   0.611   0.636   0.645   0.640   0.606   0.592   0.576   0.585   0.530   0.527   0.506   0.494   0.501   0.480   0.468   0.497   0.464   0.544   0.522   0.508   0.559   0.584   0.515   0.537   0.532   0.571   0.541   0.556   0.547   0.523   0.499   0.515   0.562   0.547   0.535   0.489   0.496   0.465   0.495   0.518   0.532   0.546   0.585   0.545   0.558   0.563   0.528   0.531   0.590   0.621   0.585   0.544   0.562   0.546   0.570   0.601   0.590   0.580   0.584   0.556   0.571   0.545   0.502   0.540   0.486   0.526   0.516   0.494   0.488   0.490   0.486   0.498   0.523   0.516   0.542   0.514   0.548   0.566   0.568   0.543   0.500   0.520   0.509   0.506   0.541   0.520   0.575   0.563   0.526   0.511   0.508   0.481   0.482   0.504   0.509   0.527   0.604   0.568   0.588   0.630   0.632   0.617   0.588   0.571   0.567   0.557   0.569   0.581   0.611   0.585   0.546   0.586   0.575   0.564   0.607   0.575   0.616   0.580   0.576   0.593   0.597   0.614   0.604   0.623   0.611   0.595   0.590   0.573   0.576   0.569   0.573   0.601   0.575   0.591   0.553   0.499   0.483   0.501   0.494   0.496   0.498   0.527   0.598   0.586   0.547   0.541   0.560   0.507   0.492   0.485   0.534   0.541   0.578   0.586   0.529   0.550   0.542   0.528   0.542   0.580   0.580   0.573   0.560   0.551   0.511   0.543   0.537   0.565   0.540   0.527   0.495
    47.50    0.567   0.550   0.515   0.540   0.594   0.647   0.621   0.619   0.578   0.580   0.574   0.551   0.542   0.542   0.573   0.528   0.536   0.576   0.550   0.570   0.597   0.614   0.640   0.604   0.624   0.623   0.606   0.577   0.554   0.573   0.560   0.556   0.559   0.492   0.474   0.480   0.453   0.473   0.489   0.514   0.516   0.511   0.518   0.564   0.533   0.558   0.584   0.565   0.565   0.561   0.541   0.507   0.479   0.476   0.489   0.533   0.527   0.530   0.500   0.468   0.467   0.498   0.544   0.562   0.579   0.588   0.573   0.551   0.533   0.584   0.561   0.588   0.559   0.529   0.532   0.577   0.558   0.610   0.597   0.566   0.584   0.557   0.558   0.510   0.515   0.503   0.477   0.506   0.544   0.539   0.505   0.478   0.503   0.543   0.505   0.485   0.501   0.484   0.512   0.541   0.585   0.553   0.532   0.519   0.528   0.531   0.522   0.530   0.556   0.584   0.525   0.550   0.505   0.501   0.509   0.499   0.502   0.556   0.565   0.581   0.592   0.630   0.639   0.649   0.584   0.549   0.550   0.531   0.543   0.563   0.582   0.573   0.537   0.572   0.563   0.517   0.565   0.561   0.580   0.567   0.588   0.584   0.603   0.607   0.636   0.625   0.570   0.594   0.613   0.607   0.580   0.577   0.577   0.609   0.589   0.589   0.550   0.538   0.545   0.532   0.525   0.515   0.505   0.500   0.564   0.547   0.528   0.556   0.538   0.504   0.495   0.502   0.538   0.549   0.592   0.546   0.568   0.544   0.550   0.551   0.539   0.556   0.572   0.541   0.546   0.545   0.530   0.541   0.552   0.540   0.543   0.545   0.563
    38.20    0.558   0.562   0.569   0.581   0.607   0.617   0.600   0.595   0.619   0.585   0.554   0.569   0.570   0.562   0.595   0.550   0.564   0.606   0.604   0.597   0.608   0.603   0.572   0.584   0.611   0.641   0.612   0.596   0.577   0.570   0.571   0.573   0.577   0.534   0.495   0.477   0.474   0.461   0.461   0.467   0.509   0.548   0.520   0.557   0.603   0.558   0.553   0.577   0.577   0.595   0.536   0.495   0.452   0.455   0.464   0.502   0.526   0.545   0.517   0.486   0.491   0.497   0.498   0.543   0.554   0.570   0.559   0.543   0.572   0.612   0.563   0.561   0.527   0.516   0.505   0.515   0.572   0.606   0.580   0.550   0.572   0.559   0.527   0.543   0.487   0.510   0.500   0.514   0.516   0.523   0.493   0.490   0.483   0.541   0.530   0.502   0.465   0.473   0.534   0.541   0.549   0.543   0.539   0.511   0.490   0.511   0.537   0.508   0.548   0.553   0.547   0.548   0.534   0.511   0.493   0.506   0.517   0.539   0.559   0.556   0.582   0.605   0.598   0.624   0.606   0.560   0.538   0.524   0.520   0.534   0.546   0.547   0.542   0.520   0.537   0.507   0.505   0.546   0.551   0.535   0.576   0.584   0.604   0.615   0.584   0.579   0.546   0.570   0.551   0.556   0.545   0.554   0.589   0.573   0.584   0.543   0.517   0.543   0.552   0.525   0.511   0.494   0.486   0.497   0.513   0.516   0.522   0.520   0.507   0.536   0.531   0.507   0.528   0.513   0.529   0.531   0.505   0.530   0.527   0.542   0.489   0.525   0.535   0.554   0.548   0.511   0.516   0.551   0.529   0.517   0.523   0.537   0.528
    28.90    0.555   0.578   0.576   0.569   0.604   0.604   0.587   0.582   0.596   0.573   0.585   0.572   0.537   0.591   0.594   0.585   0.565   0.582   0.572   0.553   0.577   0.580   0.564   0.546   0.573   0.595   0.601   0.640   0.611   0.593   0.585   0.589   0.594   0.518   0.500   0.493   0.485   0.454   0.485   0.495   0.493   0.504   0.555   0.559   0.562   0.545   0.602   0.567   0.589   0.582   0.563   0.514   0.487   0.451   0.492   0.539   0.544   0.537   0.532   0.512   0.497   0.487   0.478   0.499   0.530   0.519   0.559   0.585   0.576   0.619   0.619   0.568   0.564   0.523   0.530   0.492   0.570   0.587   0.571   0.563   0.557   0.539   0.506   0.558   0.528   0.518   0.517   0.501   0.515   0.522   0.501   0.529   0.518   0.548   0.525   0.534   0.495   0.503   0.546   0.549   0.529   0.547   0.562   0.529   0.498   0.518   0.490   0.517   0.543   0.543   0.528   0.566   0.558   0.514   0.491   0.550   0.509   0.502   0.514   0.560   0.558   0.587   0.611   0.652   0.616   0.606   0.510   0.511   0.521   0.545   0.516   0.513   0.497   0.485   0.478   0.517   0.498   0.514   0.539   0.556   0.572   0.602   0.584   0.612   0.563   0.581   0.557   0.573   0.535   0.533   0.547   0.596   0.547   0.542   0.552   0.535   0.475   0.486   0.529   0.545   0.518   0.486   0.478   0.486   0.536   0.485   0.506   0.525   0.520   0.506   0.513   0.480   0.490   0.541   0.494   0.501   0.485   0.488   0.482   0.522   0.497   0.515   0.531   0.558   0.528   0.494   0.458   0.503   0.527   0.503   0.538   0.536   0.545
    19.60    0.559   0.576   0.622   0.600   0.585   0.585   0.575   0.553   0.547   0.585   0.612   0.601   0.551   0.589   0.595   0.555   0.546   0.549   0.554   0.523   0.521   0.539   0.537   0.537   0.579   0.616   0.598   0.575   0.594   0.594   0.577   0.578   0.533   0.532   0.504   0.499   0.465   0.472   0.490   0.459   0.491   0.509   0.545   0.543   0.579   0.563   0.604   0.613   0.612   0.583   0.540   0.539   0.505   0.522   0.487   0.530   0.504   0.540   0.521   0.529   0.492   0.486   0.492   0.492   0.508   0.527   0.582   0.607   0.598   0.604   0.597   0.570   0.527   0.523   0.520   0.504   0.534   0.532   0.542   0.532   0.556   0.559   0.522   0.518   0.506   0.496   0.495   0.485   0.515   0.517   0.506   0.549   0.563   0.534   0.508   0.521   0.494   0.485   0.563   0.544   0.572   0.569   0.563   0.551   0.520   0.536   0.514   0.448   0.502   0.567   0.557   0.606   0.605   0.585   0.561   0.547   0.536   0.538   0.532   0.551   0.550   0.573   0.593   0.628   0.607   0.594   0.544   0.496   0.518   0.514   0.537   0.486   0.478   0.453   0.458   0.482   0.512   0.548   0.541   0.562   0.575   0.611   0.566   0.591   0.590   0.573   0.577   0.554   0.544   0.540   0.615   0.622   0.596   0.554   0.565   0.545   0.495   0.479   0.506   0.479   0.515   0.483   0.494   0.467   0.519   0.486   0.508   0.504   0.526   0.509   0.501   0.490   0.508   0.535   0.486   0.484   0.506   0.507   0.478   0.518   0.504   0.518   0.533   0.544   0.536   0.517   0.544   0.522   0.490   0.506   0.513   0.543   0.530
    10.30    0.564   0.531   0.574   0.567   0.552   0.556   0.583   0.561   0.587   0.586   0.564   0.530   0.525   0.591   0.629   0.600   0.554   0.579   0.544   0.525   0.517   0.492   0.524   0.552   0.555   0.583   0.562   0.554   0.567   0.585   0.553   0.543   0.569   0.528   0.510   0.503   0.516   0.511   0.521   0.483   0.488   0.532   0.525   0.529   0.556   0.546   0.566   0.560   0.569   0.566   0.564   0.569   0.521   0.511   0.555   0.518   0.545   0.542   0.537   0.544   0.467   0.487   0.493   0.477   0.502   0.546   0.588   0.612   0.608   0.577   0.575   0.553   0.569   0.544   0.542   0.528   0.543   0.513   0.521   0.533   0.566   0.520   0.480   0.493   0.490   0.472   0.503   0.517   0.506   0.489   0.507   0.547   0.560   0.539   0.515   0.511   0.516   0.506   0.586   0.548   0.561   0.529   0.563   0.541   0.478   0.496   0.499   0.492   0.517   0.546   0.593   0.604   0.592   0.600   0.579   0.560   0.549   0.542   0.549   0.513   0.555   0.556   0.566   0.603   0.618   0.561   0.572   0.532   0.492   0.502   0.491   0.503   0.494   0.514   0.477   0.477   0.524   0.540   0.515   0.516   0.564   0.561   0.594   0.569   0.562   0.587   0.565   0.534   0.561   0.564   0.634   0.588   0.641   0.588   0.613   0.572   0.503   0.471   0.477   0.472   0.494   0.514   0.491   0.535   0.531   0.513   0.534   0.541   0.527   0.541   0.514   0.521   0.560   0.517   0.523   0.491   0.488   0.484   0.487   0.492   0.523   0.509   0.549   0.562   0.558   0.514   0.547   0.541   0.520   0.509   0.536   0.538   0.543
     1.00    0.573   0.553   0.560   0.554   0.554   0.558   0.569   0.591   0.587   0.548   0.557   0.565   0.549   0.567   0.600   0.594   0.610   0.609   0.535   0.508   0.521   0.498   0.523   0.530   0.571   0.547   0.566   0.543   0.550   0.576   0.543   0.574   0.578   0.516   0.516   0.509   0.545   0.538   0.538   0.523   0.503   0.514   0.546   0.509   0.499   0.500   0.567   0.559   0.548   0.545   0.523   0.522   0.505   0.527   0.541   0.544   0.544   0.515   0.525   0.520   0.472   0.490   0.522   0.508   0.539   0.550   0.562   0.581   0.575   0.579   0.534   0.543   0.559   0.553   0.532   0.514   0.509   0.501   0.495   0.518   0.530   0.506   0.492   0.482   0.480   0.447   0.476   0.509   0.521   0.522   0.512   0.550   0.559   0.576   0.525   0.503   0.531   0.506   0.539   0.554   0.503   0.513   0.525   0.519   0.494   0.447   0.479   0.493   0.524   0.517   0.569   0.610   0.640   0.590   0.587   0.533   0.540   0.515   0.524   0.478   0.511   0.548   0.523   0.562   0.583   0.546   0.568   0.534   0.511   0.482   0.517   0.497   0.517   0.509   0.477   0.470   0.493   0.537   0.516   0.537   0.508   0.537   0.567   0.598   0.565   0.596   0.579   0.587   0.577   0.582   0.602   0.643   0.641   0.601   0.588   0.566   0.503   0.484   0.489   0.470   0.499   0.505   0.514   0.522   0.543   0.539   0.536   0.526   0.527   0.547   0.530   0.516   0.553   0.559   0.537   0.547   0.505   0.477   0.469   0.480   0.500   0.539   0.552   0.548   0.532   0.490   0.509   0.510   0.525   0.530   0.502   0.548   0.560

   Height   Standard deviation at grid points for the v component:
   354.40    0.481   0.506   0.525   0.497   0.473   0.459   0.451   0.473   0.470   0.453   0.459   0.466   0.497   0.505   0.518   0.543   0.524   0.506   0.490   0.523   0.505   0.487   0.493   0.497   0.485   0.482   0.495   0.452   0.454   0.457   0.428   0.422   0.437   0.424   0.459   0.468   0.488   0.514   0.488   0.489   0.480   0.476   0.505   0.475   0.455   0.464   0.467   0.454   0.462   0.469   0.481   0.458   0.459   0.467   0.464   0.474   0.457   0.460   0.465   0.477   0.470   0.469   0.474   0.487   0.438   0.439   0.463   0.465   0.474   0.453   0.467   0.456   0.452   0.434   0.416   0.426   0.428   0.452   0.439   0.417   0.432   0.443   0.480   0.485   0.481   0.490   0.488   0.466   0.461   0.449   0.419   0.430   0.432   0.419   0.429   0.454   0.448   0.439   0.439   0.407   0.414   0.441   0.438   0.459   0.468   0.465   0.437   0.424   0.432   0.427   0.434   0.440   0.425   0.432   0.437   0.425   0.425   0.445   0.438   0.447   0.463   0.469   0.461   0.433   0.427   0.453   0.445   0.430   0.449   0.447   0.461   0.468   0.475   0.503   0.496   0.506   0.485   0.485   0.458   0.494   0.492   0.476   0.496   0.485   0.476   0.466   0.465   0.451   0.451   0.450   0.470   0.433   0.427   0.447   0.441   0.467   0.476   0.487   0.463   0.449   0.456   0.476   0.480   0.482   0.480   0.472   0.483   0.469   0.499   0.475   0.492   0.470   0.459   0.453   0.481   0.509   0.509   0.490   0.492   0.485   0.488   0.478   0.474   0.480   0.471   0.475   0.483   0.460   0.457   0.459   0.446   0.444   0.438
   345.10    0.514   0.528   0.528   0.503   0.474   0.446   0.466   0.467   0.483   0.468   0.472   0.491   0.491   0.508   0.526   0.532   0.518   0.509   0.487   0.494   0.509   0.496   0.490   0.478   0.480   0.475   0.457   0.447   0.443   0.433   0.438   0.414   0.438   0.447   0.468   0.486   0.490   0.497   0.502   0.454   0.470   0.499   0.517   0.490   0.474   0.459   0.448   0.464   0.454   0.463   0.453   0.428   0.414   0.439   0.451   0.478   0.452   0.467   0.465   0.477   0.469   0.465   0.461   0.454   0.453   0.442   0.444   0.458   0.452   0.474   0.452   0.459   0.436   0.425   0.402   0.422   0.415   0.436   0.449   0.440   0.466   0.466   0.481   0.503   0.501   0.483   0.489   0.431   0.431   0.422   0.429   0.449   0.451   0.433   0.426   0.445   0.458   0.438   0.418   0.432   0.417   0.447   0.465   0.477   0.489   0.493   0.453   0.474   0.488   0.429   0.442   0.440   0.417   0.440   0.431   0.409   0.426   0.428   0.434   0.436   0.456   0.449   0.461   0.456   0.438   0.439   0.451   0.439   0.452   0.461   0.450   0.478   0.465   0.484   0.505   0.470   0.466   0.456   0.481   0.509   0.531   0.531   0.532   0.503   0.492   0.464   0.450   0.458   0.432   0.431   0.436   0.419   0.429   0.445   0.445   0.463   0.483   0.505   0.512   0.488   0.485   0.454   0.444   0.454   0.459   0.456   0.484   0.479   0.464   0.462   0.461   0.476   0.469   0.441   0.456   0.465   0.484   0.489   0.511   0.474   0.475   0.455   0.432   0.458   0.473   0.490   0.484   0.473   0.476   0.468   0.473   0.438   0.447
   335.80    0.515   0.534   0.533   0.545   0.507   0.496   0.477   0.487   0.492   0.484   0.492   0.489   0.516   0.541   0.539   0.549   0.511   0.476   0.458   0.471   0.484   0.478   0.483   0.486   0.483   0.459   0.453   0.425   0.423   0.426   0.451   0.433   0.459   0.462   0.467   0.485   0.479   0.484   0.482   0.467   0.465   0.485   0.496   0.477   0.452   0.438   0.455   0.466   0.441   0.451   0.443   0.429   0.409   0.409   0.423   0.433   0.461   0.463   0.447   0.472   0.486   0.451   0.448   0.433   0.445   0.438   0.438   0.435   0.445   0.448   0.445   0.458   0.432   0.407   0.413   0.424   0.423   0.446   0.436   0.426   0.464   0.511   0.497   0.479   0.476   0.494   0.484   0.476   0.436   0.437   0.426   0.460   0.449   0.460   0.455   0.462   0.460   0.460   0.456   0.431   0.411   0.431   0.460   0.472   0.483   0.454   0.457   0.491   0.445   0.449   0.425   0.426   0.402   0.412   0.412   0.449   0.436   0.443   0.425   0.432   0.404   0.439   0.455   0.461   0.432   0.410   0.415   0.427   0.447   0.456   0.455   0.477   0.476   0.474   0.476   0.474   0.458   0.469   0.501   0.519   0.530   0.542   0.530   0.500   0.476   0.486   0.466   0.454   0.439   0.435   0.435   0.440   0.426   0.439   0.456   0.473   0.476   0.495   0.516   0.498   0.495   0.456   0.452   0.453   0.462   0.460   0.446   0.434   0.448   0.448   0.443   0.445   0.450   0.455   0.470   0.485   0.505   0.484   0.505   0.480   0.484   0.466   0.449   0.438   0.473   0.470   0.468   0.505   0.487   0.469   0.491   0.460   0.450
   326.50    0.494   0.529   0.544   0.550   0.512   0.481   0.467   0.484   0.512   0.499   0.488   0.507   0.515   0.529   0.547   0.504   0.501   0.488   0.471   0.455   0.486   0.463   0.455   0.485   0.478   0.478   0.458   0.432   0.427   0.448   0.451   0.448   0.463   0.467   0.462   0.478   0.486   0.472   0.489   0.466   0.479   0.502   0.476   0.469   0.453   0.449   0.466   0.476   0.478   0.446   0.428   0.412   0.400   0.405   0.427   0.434   0.438   0.440   0.431   0.472   0.484   0.450   0.473   0.442   0.455   0.469   0.456   0.453   0.455   0.437   0.439   0.460   0.459   0.418   0.434   0.452   0.450   0.482   0.469   0.452   0.493   0.526   0.510   0.485   0.456   0.464   0.486   0.451   0.453   0.447   0.458   0.465   0.442   0.433   0.431   0.440   0.446   0.452   0.439   0.446   0.434   0.420   0.446   0.458   0.452   0.456   0.452   0.463   0.442   0.446   0.433   0.435   0.426   0.408   0.410   0.413   0.427   0.431   0.435   0.430   0.406   0.435   0.433   0.450   0.409   0.402   0.409   0.441   0.430   0.442   0.443   0.461   0.450   0.477   0.463   0.472   0.454   0.468   0.486   0.511   0.520   0.550   0.533   0.512   0.485   0.486   0.461   0.459   0.452   0.443   0.446   0.451   0.435   0.454   0.454   0.463   0.446   0.504   0.492   0.496   0.507   0.463   0.458   0.476   0.471   0.459   0.445   0.447   0.452   0.439   0.414   0.444   0.446   0.480   0.479   0.482   0.498   0.467   0.467   0.469   0.490   0.484   0.447   0.472   0.479   0.471   0.481   0.484   0.498   0.520   0.507   0.480   0.454
[...]
   103.30    0.278   0.281   0.285   0.277   0.288   0.288   0.287   0.279   0.274   0.283   0.274   0.280   0.285   0.286   0.278   0.280   0.275   0.272   0.270   0.266   0.276   0.285   0.292   0.285   0.277   0.279   0.285   0.280   0.272   0.274   0.274   0.283   0.279   0.270   0.270   0.275   0.281   0.284   0.287   0.286   0.283   0.285   0.288   0.283   0.285   0.290   0.283   0.285   0.281   0.288   0.287   0.274   0.268   0.274   0.289   0.295   0.295   0.298   0.292   0.286   0.287   0.276   0.284   0.282   0.284   0.287   0.298   0.297   0.289   0.289   0.280   0.278   0.275   0.276   0.279   0.280   0.277   0.283   0.279   0.275   0.287   0.288   0.278   0.284   0.292   0.291   0.297   0.296   0.298   0.298   0.290   0.290   0.295   0.293   0.294   0.295   0.288   0.288   0.285   0.274   0.280   0.278   0.291   0.282   0.291   0.294   0.297   0.311   0.310   0.306   0.303   0.294   0.291   0.284   0.280   0.286   0.279   0.272   0.278   0.283   0.280   0.276   0.286   0.287   0.298   0.280   0.285   0.273   0.268   0.269   0.272   0.284   0.291   0.282   0.278   0.275   0.278   0.277   0.287   0.285   0.287   0.280   0.279   0.282   0.277   0.278   0.284   0.280   0.280   0.284   0.282   0.289   0.296   0.290   0.296   0.289   0.288   0.291   0.304   0.308   0.300   0.301   0.290   0.289   0.287   0.288   0.277   0.273   0.284   0.280   0.286   0.281   0.287   0.280   0.280   0.291   0.286   0.289   0.282   0.280   0.271   0.279   0.278   0.276   0.278   0.287   0.296   0.283   0.283   0.285   0.278   0.280   0.288
    94.00    0.278   0.277   0.278   0.283   0.287   0.284   0.282   0.283   0.282   0.293   0.283   0.284   0.290   0.289   0.282   0.282   0.287   0.290   0.272   0.264   0.271   0.279   0.279   0.287   0.278   0.276   0.283   0.278   0.275   0.277   0.275   0.280   0.273   0.279   0.269   0.269   0.274   0.287   0.286   0.281   0.284   0.282   0.278   0.288   0.283   0.277   0.282   0.277   0.290   0.287   0.275   0.266   0.262   0.268   0.281   0.286   0.288   0.290   0.292   0.279   0.291   0.289   0.284   0.292   0.287   0.292   0.293   0.295   0.294   0.285   0.287   0.273   0.272   0.278   0.277   0.281   0.277   0.273   0.273   0.278   0.284   0.291   0.281   0.279   0.290   0.284   0.300   0.306   0.309   0.298   0.291   0.288   0.299   0.290   0.285   0.289   0.283   0.284   0.288   0.278   0.267   0.280   0.282   0.282   0.287   0.293   0.292   0.297   0.308   0.307   0.301   0.297   0.294   0.286   0.286   0.277   0.278   0.280   0.286   0.294   0.277   0.271   0.276   0.281   0.280   0.285   0.278   0.278   0.281   0.278   0.273   0.279   0.284   0.283   0.271   0.283   0.286   0.281   0.284   0.279   0.289   0.274   0.279   0.272   0.277   0.277   0.284   0.284   0.288   0.294   0.297   0.293   0.296   0.303   0.302   0.295   0.295   0.304   0.300   0.292   0.302   0.296   0.304   0.288   0.283   0.283   0.276   0.279   0.284   0.285   0.289   0.296   0.286   0.281   0.280   0.287   0.282   0.274   0.275   0.276   0.271   0.276   0.271   0.278   0.288   0.301   0.295   0.275   0.272   0.273   0.282   0.277   0.286
    84.70    0.285   0.280   0.278   0.289   0.295   0.276   0.287   0.290   0.297   0.288   0.293   0.287   0.293   0.293   0.282   0.283   0.283   0.288   0.281   0.278   0.279   0.276   0.282   0.280   0.280   0.263   0.271   0.274   0.277   0.266   0.278   0.272   0.268   0.268   0.267   0.268   0.271   0.288   0.298   0.287   0.290   0.284   0.276   0.271   0.278   0.272   0.273   0.275   0.275   0.274   0.276   0.270   0.272   0.270   0.279   0.284   0.283   0.280   0.283   0.290   0.278   0.282   0.278   0.279   0.289   0.295   0.291   0.291   0.297   0.284   0.287   0.277   0.275   0.281   0.278   0.279   0.282   0.287   0.287   0.284   0.280   0.278   0.284   0.291   0.280   0.283   0.295   0.301   0.296   0.302   0.292   0.297   0.297   0.295   0.279   0.280   0.277   0.276   0.282   0.283   0.273   0.274   0.279   0.281   0.283   0.293   0.298   0.294   0.294   0.294   0.305   0.304   0.296   0.294   0.295   0.286   0.284   0.283   0.281   0.289   0.288   0.269   0.271   0.276   0.275   0.280   0.286   0.286   0.280   0.278   0.278   0.276   0.273   0.277   0.275   0.282   0.283   0.284   0.284   0.287   0.280   0.278   0.284   0.277   0.281   0.268   0.287   0.288   0.290   0.298   0.290   0.287   0.301   0.293   0.298   0.301   0.297   0.295   0.295   0.286   0.288   0.285   0.296   0.293   0.282   0.275   0.278   0.281   0.288   0.284   0.280   0.282   0.291   0.288   0.285   0.279   0.273   0.282   0.276   0.275   0.281   0.274   0.274   0.273   0.276   0.284   0.281   0.281   0.270   0.270   0.283   0.276   0.289
    75.40    0.282   0.275   0.282   0.285   0.292   0.282   0.284   0.290   0.295   0.293   0.295   0.289   0.287   0.289   0.283   0.283   0.285   0.287   0.282   0.279   0.283   0.272   0.273   0.282   0.277   0.275   0.285   0.284   0.279   0.274   0.277   0.281   0.270   0.262   0.262   0.274   0.276   0.290   0.282   0.291   0.291   0.289   0.282   0.281   0.280   0.275   0.266   0.273   0.272   0.281   0.280   0.280   0.279   0.274   0.275   0.282   0.285   0.278   0.279   0.287   0.277   0.278   0.273   0.278   0.291   0.289   0.292   0.289   0.290   0.289   0.286   0.286   0.284   0.283   0.280   0.278   0.289   0.295   0.285   0.285   0.289   0.288   0.292   0.289   0.281   0.290   0.290   0.304   0.297   0.302   0.301   0.299   0.289   0.279   0.281   0.276   0.285   0.280   0.278   0.281   0.272   0.282   0.286   0.275   0.276   0.291   0.300   0.284   0.292   0.290   0.302   0.299   0.296   0.297   0.294   0.285   0.287   0.286   0.293   0.283   0.281   0.278   0.285   0.282   0.282   0.287   0.282   0.287   0.284   0.294   0.275   0.268   0.272   0.279   0.278   0.279   0.284   0.276   0.288   0.281   0.289   0.278   0.282   0.277   0.280   0.272   0.288   0.295   0.291   0.283   0.299   0.297   0.300   0.295   0.284   0.294   0.297   0.292   0.288   0.284   0.291   0.284   0.280   0.282   0.282   0.291   0.279   0.279   0.285   0.276   0.282   0.285   0.293   0.284   0.286   0.282   0.275   0.284   0.286   0.283   0.288   0.283   0.277   0.277   0.287   0.288   0.280   0.280   0.277   0.277   0.282   0.277   0.283
    66.10    0.284   0.276   0.279   0.291   0.288   0.287   0.286   0.298   0.297   0.294   0.289   0.289   0.287   0.284   0.289   0.289   0.282   0.295   0.292   0.291   0.276   0.268   0.271   0.265   0.277   0.270   0.276   0.285   0.283   0.279   0.276   0.287   0.273   0.270   0.274   0.275   0.271   0.280   0.283   0.291   0.288   0.285   0.289   0.274   0.271   0.274   0.269   0.272   0.279   0.289   0.282   0.279   0.288   0.278   0.282   0.281   0.275   0.270   0.273   0.286   0.286   0.278   0.275   0.273   0.280   0.286   0.292   0.287   0.289   0.299   0.297   0.289   0.287   0.275   0.279   0.275   0.282   0.293   0.295   0.282   0.282   0.293   0.290   0.286   0.288   0.286   0.287   0.299   0.304   0.301   0.295   0.293   0.286   0.285   0.273   0.277   0.275   0.276   0.269   0.276   0.281   0.286   0.274   0.274   0.281   0.288   0.297   0.291   0.298   0.288   0.295   0.295   0.290   0.292   0.280   0.283   0.291   0.285   0.278   0.287   0.284   0.287   0.289   0.295   0.294   0.294   0.294   0.280   0.286   0.286   0.269   0.280   0.274   0.278   0.288   0.277   0.274   0.282   0.275   0.280   0.280   0.276   0.270   0.276   0.278   0.276   0.283   0.284   0.286   0.288   0.291   0.295   0.308   0.307   0.302   0.297   0.299   0.289   0.291   0.287   0.289   0.296   0.277   0.283   0.281   0.284   0.277   0.276   0.281   0.287   0.292   0.290   0.298   0.292   0.288   0.281   0.276   0.277   0.286   0.284   0.284   0.286   0.285   0.281   0.276   0.287   0.294   0.297   0.278   0.271   0.279   0.283   0.287
    56.80    0.288   0.280   0.285   0.284   0.290   0.295   0.297   0.293   0.298   0.298   0.289   0.290   0.281   0.287   0.287   0.289   0.293   0.292   0.287   0.279   0.276   0.269   0.282   0.267   0.268   0.283   0.283   0.282   0.283   0.274   0.275   0.278   0.269   0.276   0.275   0.276   0.275   0.286   0.280   0.283   0.277   0.282   0.279   0.272   0.272   0.280   0.280   0.281   0.279   0.278   0.281   0.283   0.286   0.280   0.280   0.280   0.277   0.276   0.278   0.279   0.281   0.275   0.278   0.278   0.278   0.286   0.281   0.292   0.296   0.292   0.283   0.283   0.280   0.277   0.283   0.282   0.292   0.291   0.283   0.287   0.291   0.285   0.281   0.286   0.293   0.292   0.293   0.296   0.299   0.302   0.296   0.284   0.282   0.285   0.274   0.288   0.277   0.273   0.270   0.272   0.279   0.272   0.270   0.271   0.283   0.287   0.295   0.293   0.290   0.289   0.295   0.295   0.283   0.283   0.279   0.282   0.290   0.282   0.275   0.284   0.296   0.296   0.301   0.288   0.297   0.296   0.302   0.283   0.288   0.278   0.277   0.287   0.290   0.292   0.291   0.286   0.275   0.283   0.282   0.279   0.285   0.282   0.273   0.277   0.279   0.274   0.281   0.289   0.288   0.298   0.291   0.291   0.303   0.303   0.302   0.292   0.287   0.291   0.282   0.282   0.281   0.296   0.279   0.284   0.281   0.291   0.290   0.280   0.286   0.288   0.290   0.289   0.289   0.291   0.292   0.287   0.288   0.279   0.280   0.291   0.285   0.296   0.294   0.285   0.279   0.290   0.302   0.295   0.291   0.280   0.291   0.287   0.290
    47.50    0.286   0.283   0.276   0.278   0.289   0.288   0.307   0.294   0.291   0.295   0.289   0.285   0.287   0.281   0.281   0.280   0.281   0.285   0.277   0.280   0.281   0.279   0.284   0.281   0.278   0.276   0.280   0.285   0.279   0.278   0.277   0.287   0.280   0.278   0.288   0.283   0.274   0.280   0.282   0.281   0.286   0.271   0.277   0.260   0.270   0.280   0.279   0.276   0.286   0.280   0.283   0.288   0.287   0.282   0.277   0.278   0.281   0.279   0.287   0.281   0.284   0.277   0.284   0.279   0.274   0.274   0.286   0.287   0.284   0.282   0.273   0.287   0.277   0.289   0.277   0.288   0.283   0.282   0.280   0.293   0.291   0.294   0.296   0.292   0.288   0.285   0.288   0.293   0.300   0.294   0.296   0.289   0.290   0.290   0.273   0.279   0.276   0.274   0.271   0.276   0.274   0.278   0.270   0.277   0.283   0.290   0.289   0.287   0.283   0.291   0.288   0.288   0.290   0.292   0.285   0.272   0.286   0.283   0.282   0.285   0.289   0.292   0.295   0.298   0.280   0.291   0.291   0.290   0.290   0.284   0.292   0.289   0.285   0.286   0.292   0.293   0.280   0.286   0.287   0.284   0.285   0.287   0.293   0.286   0.278   0.283   0.289   0.294   0.298   0.290   0.286   0.281   0.294   0.308   0.311   0.309   0.299   0.293   0.289   0.289   0.289   0.297   0.283   0.284   0.286   0.282   0.292   0.297   0.290   0.287   0.293   0.293   0.290   0.282   0.297   0.289   0.291   0.290   0.280   0.291   0.285   0.297   0.296   0.284   0.278   0.300   0.298   0.295   0.289   0.288   0.290   0.287   0.294
    38.20    0.289   0.281   0.285   0.286   0.285   0.283   0.288   0.287   0.294   0.286   0.287   0.287   0.289   0.281   0.279   0.274   0.269   0.284   0.287   0.276   0.282   0.283   0.282   0.285   0.284   0.284   0.288   0.291   0.295   0.289   0.289   0.281   0.284   0.278   0.276   0.279   0.286   0.289   0.284   0.280   0.284   0.267   0.264   0.259   0.273   0.278   0.278   0.275   0.281   0.280   0.279   0.290   0.290   0.286   0.282   0.279   0.273   0.275   0.290   0.295   0.292   0.278   0.270   0.275   0.277   0.280   0.294   0.288   0.298   0.281   0.269   0.272   0.273   0.281   0.288   0.283   0.282   0.278   0.282   0.292   0.288   0.291   0.292   0.289   0.281   0.287   0.296   0.290   0.286   0.296   0.282   0.286   0.286   0.292   0.292   0.283   0.278   0.270   0.269   0.273   0.281   0.280   0.274   0.271   0.283   0.286   0.289   0.286   0.282   0.278   0.281   0.292   0.296   0.279   0.279   0.261   0.273   0.271   0.287   0.284   0.288   0.298   0.292   0.296   0.301   0.296   0.292   0.289   0.294   0.291   0.293   0.299   0.294   0.284   0.285   0.296   0.288   0.292   0.285   0.288   0.283   0.284   0.281   0.278   0.275   0.285   0.301   0.290   0.297   0.299   0.287   0.283   0.289   0.289   0.292   0.300   0.294   0.281   0.286   0.275   0.288   0.293   0.278   0.286   0.298   0.289   0.285   0.295   0.290   0.291   0.290   0.294   0.288   0.292   0.289   0.290   0.292   0.287   0.296   0.287   0.280   0.284   0.287   0.284   0.291   0.290   0.300   0.295   0.284   0.277   0.281   0.281   0.287
    28.90    0.286   0.277   0.280   0.281   0.297   0.297   0.294   0.294   0.293   0.298   0.282   0.283   0.282   0.283   0.276   0.275   0.275   0.280   0.283   0.281   0.273   0.286   0.281   0.280   0.271   0.284   0.284   0.286   0.289   0.294   0.288   0.285   0.286   0.269   0.272   0.269   0.284   0.293   0.278   0.285   0.280   0.267   0.266   0.265   0.271   0.277   0.267   0.273   0.286   0.287   0.289   0.284   0.294   0.287   0.280   0.269   0.263   0.277   0.293   0.292   0.290   0.278   0.281   0.285   0.278   0.283   0.293   0.300   0.285   0.286   0.271   0.266   0.265   0.282   0.280   0.283   0.286   0.281   0.286   0.285   0.301   0.290   0.296   0.300   0.305   0.305   0.299   0.294   0.288   0.280   0.286   0.284   0.283   0.283   0.288   0.286   0.278   0.265   0.269   0.276   0.277   0.276   0.275   0.282   0.284   0.277   0.282   0.284   0.284   0.284   0.287   0.289   0.288   0.277   0.285   0.277   0.276   0.290   0.283   0.280   0.295   0.291   0.295   0.297   0.302   0.296   0.299   0.305   0.284   0.298   0.291   0.295   0.291   0.282   0.284   0.285   0.289   0.302   0.302   0.299   0.290   0.287   0.276   0.267   0.275   0.282   0.288   0.283   0.297   0.292   0.284   0.283   0.290   0.294   0.283   0.294   0.286   0.288   0.293   0.292   0.292   0.290   0.277   0.288   0.291   0.289   0.274   0.285   0.284   0.290   0.293   0.281   0.281   0.281   0.282   0.292   0.288   0.284   0.290   0.291   0.276   0.279   0.287   0.289   0.291   0.292   0.298   0.288   0.280   0.285   0.278   0.288   0.289
    19.60    0.289   0.280   0.286   0.281   0.289   0.294   0.286   0.283   0.295   0.287   0.286   0.290   0.287   0.285   0.274   0.278   0.274   0.277   0.285   0.291   0.278   0.274   0.279   0.287   0.278   0.278   0.285   0.290   0.284   0.286   0.286   0.285   0.273   0.272   0.281   0.279   0.281   0.276   0.269   0.275   0.268   0.266   0.268   0.265   0.269   0.270   0.275   0.279   0.279   0.284   0.282   0.288   0.290   0.296   0.288   0.278   0.274   0.271   0.283   0.290   0.283   0.276   0.270   0.287   0.286   0.290   0.285   0.291   0.278   0.276   0.281   0.280   0.276   0.284   0.285   0.282   0.293   0.276   0.279   0.286   0.291   0.291   0.298   0.299   0.304   0.309   0.290   0.298   0.288   0.275   0.270   0.270   0.274   0.284   0.274   0.275   0.282   0.280   0.276   0.266   0.273   0.279   0.277   0.280   0.283   0.288   0.287   0.286   0.282   0.287   0.289   0.282   0.280   0.289   0.281   0.281   0.292   0.293   0.287   0.287   0.285   0.295   0.296   0.306   0.293   0.289   0.290   0.289   0.290   0.297   0.293   0.295   0.292   0.291   0.280   0.280   0.283   0.292   0.308   0.302   0.296   0.291   0.283   0.281   0.275   0.273   0.279   0.277   0.281   0.288   0.286   0.284   0.282   0.287   0.280   0.297   0.301   0.289   0.292   0.295   0.295   0.284   0.275   0.286   0.279   0.284   0.279   0.277   0.269   0.281   0.281   0.280   0.282   0.274   0.283   0.283   0.288   0.282   0.289   0.286   0.281   0.278   0.290   0.287   0.289   0.288   0.288   0.285   0.280   0.277   0.277   0.277   0.288
    10.30    0.281   0.286   0.279   0.288   0.287   0.290   0.278   0.285   0.281   0.284   0.282   0.290   0.296   0.293   0.284   0.281   0.274   0.274   0.277   0.281   0.281   0.270   0.272   0.285   0.280   0.278   0.281   0.283   0.283   0.278   0.277   0.278   0.270   0.279   0.276   0.271   0.277   0.270   0.268   0.270   0.269   0.271   0.273   0.273   0.273   0.273   0.280   0.284   0.288   0.293   0.289   0.283   0.285   0.296   0.287   0.277   0.280   0.273   0.287   0.296   0.290   0.290   0.288   0.286   0.290   0.288   0.281   0.281   0.279   0.278   0.277   0.279   0.277   0.275   0.284   0.278   0.289   0.288   0.282   0.290   0.293   0.295   0.295   0.284   0.287   0.292   0.288   0.291   0.287   0.278   0.277   0.284   0.286   0.289   0.284   0.280   0.281   0.283   0.274   0.280   0.268   0.280   0.286   0.287   0.280   0.283   0.289   0.281   0.280   0.283   0.290   0.275   0.280   0.287   0.285   0.286   0.285   0.292   0.292   0.289   0.298   0.291   0.296   0.293   0.289   0.293   0.295   0.287   0.288   0.304   0.302   0.286   0.293   0.291   0.278   0.280   0.286   0.281   0.291   0.299   0.301   0.295   0.279   0.279   0.278   0.276   0.265   0.270   0.271   0.280   0.281   0.278   0.274   0.285   0.289   0.286   0.290   0.281   0.281   0.290   0.293   0.286   0.289   0.278   0.280   0.278   0.292   0.277   0.285   0.277   0.275   0.285   0.276   0.294   0.292   0.291   0.289   0.291   0.283   0.297   0.286   0.291   0.286   0.285   0.284   0.283   0.288   0.275   0.277   0.286   0.278   0.282   0.267
     1.00    0.284   0.286   0.275   0.283   0.280   0.282   0.282   0.280   0.281   0.285   0.292   0.286   0.283   0.292   0.290   0.277   0.282   0.283   0.285   0.280   0.275   0.279   0.286   0.282   0.281   0.280   0.284   0.277   0.275   0.279   0.282   0.288   0.276   0.273   0.277   0.275   0.273   0.267   0.261   0.276   0.275   0.265   0.268   0.266   0.276   0.289   0.284   0.278   0.287   0.295   0.287   0.288   0.291   0.291   0.290   0.294   0.290   0.289   0.285   0.288   0.290   0.286   0.290   0.283   0.291   0.288   0.287   0.287   0.279   0.282   0.272   0.271   0.288   0.283   0.276   0.279   0.290   0.295   0.277   0.285   0.289   0.288   0.294   0.300   0.288   0.289   0.295   0.294   0.288   0.284   0.284   0.277   0.287   0.283   0.276   0.276   0.286   0.276   0.285   0.280   0.276   0.277   0.276   0.282   0.289   0.288   0.293   0.279   0.284   0.291   0.290   0.291   0.284   0.290   0.285   0.289   0.285   0.290   0.290   0.289   0.296   0.291   0.297   0.291   0.292   0.299   0.292   0.299   0.307   0.300   0.291   0.290   0.290   0.297   0.283   0.289   0.297   0.288   0.280   0.282   0.289   0.288   0.280   0.278   0.280   0.272   0.268   0.271   0.277   0.285   0.283   0.276   0.285   0.292   0.289   0.292   0.293   0.294   0.276   0.280   0.275   0.283   0.289   0.280   0.283   0.278   0.281   0.289   0.290   0.280   0.282   0.292   0.288   0.296   0.293   0.293   0.286   0.290   0.288   0.292   0.285   0.285   0.282   0.279   0.283   0.283   0.288   0.283   0.280   0.281   0.280   0.279   0.280

   Mean standard deviation across all grid points:
      u component:    0.557 m/s
      v component:    0.470 m/s
      w component:    0.284 m/s


U-component (X) statistics from the interpolated hub point:

   Mean =   9.7063 m/s
   TI   =   6.3471 %


Processing complete.  2.18393E+05 CPU seconds used.
