
This summary file was generated by TurbSim (from OpenFAST-v3.5.3) on 19-Apr-2025 at 19:42:29.


Runtime Options:

 916078875  Random seed #1
    RANLUX  Type of random number generator
         F  Output binary HH turbulence parameters?
         F  Output formatted turbulence parameters?
         F  Output AeroDyn HH files?
         T  Output AeroDyn FF files?
         F  Output BLADED FF files?
         F  Output tower data?
         F  Output HAWC FF files?
         F  Output formatted FF files?
         T  Output coherent turbulence time step file?
 0 -  NONE  IEC turbulence models scaled to exact specified standard deviation


Turbine/Model Specifications:

        39  Vertical grid-point matrix dimension
       193  Horizontal grid-point matrix dimension
     0.250  Time step [seconds]
   900.000  Analysis time [seconds]
   900.000  Usable output time [seconds]
   177.700  Hub height [m]
   353.400  Grid height [m]
  1785.600  Grid width [m]
     0.000  Vertical flow angle [degrees]
     0.000  Horizontal flow angle [degrees]


Meteorological Boundary Conditions:

    IECKAI  IEC Kaimal spectral model
         1  IEC standard: IEC 61400-1 Ed. 3: 2005
     7.500  Percent turbulence intensity, IEC 61400-1 Ed. 3: 2005
       NTM  IEC Normal Turbulence Model
       N/A  IEC Extreme Turbulence Model (ETM) "c" parameter [m/s]
       USR  Wind profile type
    90.000  Reference height [m]
       N/A  Reference wind speed [m/s]
       N/A  Jet height [m]
       N/A  Power law exponent
     0.030  Surface roughness length [m]


Non-IEC Meteorological Boundary Conditions:

       N/A  Site latitude [degrees]
       N/A  Gradient Richardson number
       N/A  Friction or shear velocity [m/s]
       N/A  Mixing layer depth [m]
       N/A  Mean hub u'w' Reynolds stress
       N/A  Mean hub u'v' Reynolds stress
       N/A  Mean hub v'w' Reynolds stress


Spatial Coherence Models:

       IEC  u-component coherence model
       IEC  v-component coherence model
       IEC  w-component coherence model
(   12.000, 0.353E-03)  u-component coherence parameters
(   12.000, 0.353E-03)  v-component coherence parameters
(   12.000, 0.353E-03)  w-component coherence parameters
       N/A  Coherence exponent


User-Defined Profiles:

  Height   Wind Speed   Horizontal Angle
   (m)        (m/s)          (deg)      
  ------   ----------   ----------------
  353.40      10.00         318.19
  334.80      10.00         321.14
  316.20      10.00         324.10
  297.60      10.00         327.05
  279.00      10.00         330.00
  260.40      10.00         332.95
  241.80      10.00         335.90
  223.20      10.00         338.86
  204.60      10.00         341.81
  186.00      10.00         344.76
  167.40      10.00         347.71
  148.80      10.00         350.67
  130.20      10.00         353.62
  111.60      10.00         356.57
   93.00      10.00         359.52
   74.40      10.00           2.48
   55.80      10.00           5.43
   37.20      10.00           8.38
   18.60      10.00          11.33
    0.00      10.00          14.29


You have requested that the following file(s) be generated:

   /kfs3/scratch/agupta/Projects/RL_Incubator/FinalRuns_Veer/Seed4/./FFSim_Seed4/Cond00_v10.0_PL0.12_TI7.5/Seed_0/Low.bts (AeroDyn/TurbSim full-field wind file)


Turbulence Simulation Scaling Parameter Summary:

   Turbulence model used                            =  IEC Kaimal
   Turbulence characteristic                        =  User-specified
   IEC standard                                     =  IEC 61400-1 Ed. 3: 2005
   Mean wind speed at hub height                    =   10.000 m/s
   Characteristic value of standard deviation       =    0.750 m/s
   Turbulence scale                                 =   42.000 m
   u-component integral scale                       =  340.200 m
   Coherency scale                                  =  340.200 m
   Characteristic value of hub turbulence intensity =    7.500%
   Gradient Richardson number                       =    0.000

   Wind profile type                                =  Linear interpolation of user-defined profile
   Equivalent power law exponent (upper rotor disk) =    0.000
   Mean shear across rotor disk                     =    0.000 (m/s)/m
   Assumed rotor diameter                           =  353.400 m
   Surface roughness length                         =    0.030 m

   Nyquist frequency of turbulent wind field        =    2.000 Hz

   Number of time steps in the FFT                  =     3600
   Number of time steps output                      =     3600
   Number of points simulated                       =     7527


Mean Flow Angles:

   Vertical   =   0.0 degrees
   Horizontal =   0.0 degrees

Mean Wind Speed Profile:

   Height    Wind Speed   Horizontal Angle  Vertical Angle  U-comp (X)   V-comp (Y)   W-comp (Z)
     (m)        (m/s)         (degrees)       (degrees)       (m/s)        (m/s)        (m/s)   
   ------    ----------   ----------------  --------------  ----------   ----------   ----------
    354.4       10.00          318.19            0.00          7.45        -6.67         0.00
    345.1       10.00          319.51            0.00          7.60        -6.49         0.00
    335.8       10.00          320.98            0.00          7.77        -6.30         0.00
    326.5       10.00          322.46            0.00          7.93        -6.09         0.00
    317.2       10.00          323.94            0.00          8.08        -5.89         0.00
    307.9       10.00          325.41            0.00          8.23        -5.68         0.00
    298.6       10.00          326.89            0.00          8.38        -5.46         0.00
    289.3       10.00          328.37            0.00          8.51        -5.25         0.00
    280.0       10.00          329.84            0.00          8.65        -5.02         0.00
    270.7       10.00          331.32            0.00          8.77        -4.80         0.00
    261.4       10.00          332.79            0.00          8.89        -4.57         0.00
    252.1       10.00          334.27            0.00          9.01        -4.34         0.00
    242.8       10.00          335.75            0.00          9.12        -4.11         0.00
    233.5       10.00          337.22            0.00          9.22        -3.87         0.00
    224.2       10.00          338.70            0.00          9.32        -3.63         0.00
    214.9       10.00          340.17            0.00          9.41        -3.39         0.00
    205.6       10.00          341.65            0.00          9.49        -3.15         0.00
    196.3       10.00          343.13            0.00          9.57        -2.90         0.00
    187.0       10.00          344.60            0.00          9.64        -2.66         0.00
    177.7       10.00          346.08            0.00          9.71        -2.41         0.00
    168.4       10.00          347.56            0.00          9.77        -2.15         0.00
    159.1       10.00          349.03            0.00          9.82        -1.90         0.00
    149.8       10.00          350.51            0.00          9.86        -1.65         0.00
    140.5       10.00          351.98            0.00          9.90        -1.39         0.00
    131.2       10.00          353.46            0.00          9.93        -1.14         0.00
    121.9       10.00          354.94            0.00          9.96        -0.88         0.00
    112.6       10.00          356.41            0.00          9.98        -0.63         0.00
    103.3       10.00          357.89            0.00          9.99        -0.37         0.00
     94.0       10.00          359.37            0.00         10.00        -0.11         0.00
     84.7       10.00          360.84            0.00         10.00         0.15         0.00
     75.4       10.00          362.32            0.00          9.99         0.40         0.00
     66.1       10.00            3.79            0.00          9.98         0.66         0.00
     56.8       10.00            5.27            0.00          9.96         0.92         0.00
     47.5       10.00            6.75            0.00          9.93         1.17         0.00
     38.2       10.00            8.22            0.00          9.90         1.43         0.00
     28.9       10.00            9.70            0.00          9.86         1.68         0.00
     19.6       10.00           11.17            0.00          9.81         1.94         0.00
     10.3       10.00           12.65            0.00          9.76         2.19         0.00
      1.0       10.00           14.13            0.00          9.70         2.44         0.00


Harvested Random Seeds after Generation of the Random Numbers:

    377667225 K 1
            0 K 2


Hub-Height Simulated Turbulence Statistical Summary:

   Type of Wind        Min (m/s)   Mean (m/s)    Max (m/s)  Sigma (m/s)       TI (%)
   ----------------    ---------   ----------    ---------  -----------       ------
   Longitudinal (u)         7.60        10.00        12.59        0.814        8.136
   Lateral (v)             -1.82         0.00         2.02        0.553        5.526
   Vertical (w)            -1.18        -0.00         1.31        0.347        3.470
   U component              7.34         9.71        12.35        0.805        8.293
   V component             -4.34        -2.41        -0.59        0.565        5.821
   W component             -1.18        -0.00         1.31        0.347        3.575
   Horizontal (U&V)         7.60        10.02        12.60        0.814        8.131
   Total                    7.60        10.02        12.64        0.814        8.120

                       Min Reynolds     Mean Reynolds    Max Reynolds    Correlation
   Product             Stress (m/s)^2   Stress (m/s)^2   Stress (m/s)^2  Coefficient
   ----------------    --------------   --------------   --------------  -----------
   u'w'                     -2.572            -0.006             1.460        -0.021
   u'v'                     -1.898             0.014             2.230         0.032
   v'w'                     -1.001             0.013             1.534         0.070


   Friction Velocity (Ustar)  =      0.078 m/s
   Maximum Instantaneous TKE  =      3.990 (m/s)^2
   Maximum Instantaneous CTKE =      1.487 (m/s)^2


Grid Point Variance Summary:

   Y-coord -892.80 -883.50 -874.20 -864.90 -855.60 -846.30 -837.00 -827.70 -818.40 -809.10 -799.80 -790.50 -781.20 -771.90 -762.60 -753.30 -744.00 -734.70 -725.40 -716.10 -706.80 -697.50 -688.20 -678.90 -669.60 -660.30 -651.00 -641.70 -632.40 -623.10 -613.80 -604.50 -595.20 -585.90 -576.60 -567.30 -558.00 -548.70 -539.40 -530.10 -520.80 -511.50 -502.20 -492.90 -483.60 -474.30 -465.00 -455.70 -446.40 -437.10 -427.80 -418.50 -409.20 -399.90 -390.60 -381.30 -372.00 -362.70 -353.40 -344.10 -334.80 -325.50 -316.20 -306.90 -297.60 -288.30 -279.00 -269.70 -260.40 -251.10 -241.80 -232.50 -223.20 -213.90 -204.60 -195.30 -186.00 -176.70 -167.40 -158.10 -148.80 -139.50 -130.20 -120.90 -111.60 -102.30  -93.00  -83.70  -74.40  -65.10  -55.80  -46.50  -37.20  -27.90  -18.60   -9.30    0.00    9.30   18.60   27.90   37.20   46.50   55.80   65.10   74.40   83.70   93.00  102.30  111.60  120.90  130.20  139.50  148.80  158.10  167.40  176.70  186.00  195.30  204.60  213.90  223.20  232.50  241.80  251.10  260.40  269.70  279.00  288.30  297.60  306.90  316.20  325.50  334.80  344.10  353.40  362.70  372.00  381.30  390.60  399.90  409.20  418.50  427.80  437.10  446.40  455.70  465.00  474.30  483.60  492.90  502.20  511.50  520.80  530.10  539.40  548.70  558.00  567.30  576.60  585.90  595.20  604.50  613.80  623.10  632.40  641.70  651.00  660.30  669.60  678.90  688.20  697.50  706.80  716.10  725.40  734.70  744.00  753.30  762.60  771.90  781.20  790.50  799.80  809.10  818.40  827.70  837.00  846.30  855.60  864.90  874.20  883.50  892.80

   Height   Standard deviation at grid points for the u component:
   354.40    0.799   0.750   0.737   0.705   0.711   0.660   0.689   0.665   0.636   0.630   0.623   0.579   0.631   0.653   0.718   0.707   0.722   0.739   0.773   0.775   0.802   0.761   0.775   0.732   0.678   0.685   0.659   0.647   0.680   0.711   0.768   0.760   0.739   0.744   0.740   0.794   0.787   0.752   0.781   0.772   0.772   0.726   0.757   0.748   0.674   0.657   0.677   0.684   0.701   0.750   0.735   0.695   0.685   0.676   0.677   0.660   0.642   0.642   0.588   0.601   0.625   0.669   0.662   0.694   0.698   0.707   0.738   0.684   0.697   0.784   0.789   0.743   0.731   0.716   0.682   0.754   0.793   0.752   0.725   0.732   0.716   0.733   0.743   0.752   0.725   0.737   0.713   0.702   0.684   0.686   0.699   0.765   0.752   0.842   0.763   0.736   0.790   0.723   0.750   0.766   0.787   0.795   0.726   0.726   0.753   0.735   0.817   0.785   0.763   0.794   0.776   0.769   0.741   0.738   0.765   0.768   0.854   0.885   0.849   0.721   0.742   0.681   0.657   0.657   0.669   0.673   0.700   0.680   0.646   0.675   0.708   0.705   0.709   0.689   0.649   0.611   0.641   0.723   0.738   0.727   0.754   0.721   0.711   0.719   0.664   0.612   0.609   0.592   0.583   0.633   0.700   0.715   0.717   0.706   0.747   0.773   0.772   0.740   0.697   0.760   0.748   0.711   0.648   0.643   0.676   0.705   0.680   0.668   0.627   0.668   0.675   0.655   0.632   0.653   0.659   0.606   0.624   0.668   0.647   0.626   0.586   0.632   0.636   0.717   0.737   0.739   0.683   0.682   0.734   0.708   0.707   0.674   0.653
   345.10    0.747   0.720   0.764   0.733   0.720   0.642   0.659   0.669   0.621   0.604   0.631   0.630   0.648   0.675   0.701   0.695   0.697   0.735   0.773   0.810   0.832   0.775   0.748   0.752   0.697   0.664   0.633   0.628   0.672   0.732   0.768   0.747   0.724   0.732   0.731   0.796   0.791   0.753   0.775   0.752   0.803   0.745   0.757   0.721   0.644   0.680   0.650   0.661   0.685   0.737   0.769   0.706   0.722   0.724   0.704   0.632   0.641   0.637   0.617   0.586   0.638   0.660   0.675   0.666   0.670   0.673   0.718   0.725   0.758   0.800   0.799   0.762   0.757   0.715   0.688   0.731   0.804   0.805   0.765   0.721   0.726   0.695   0.709   0.772   0.779   0.742   0.732   0.688   0.713   0.718   0.652   0.719   0.752   0.791   0.789   0.763   0.778   0.709   0.757   0.801   0.840   0.809   0.742   0.789   0.786   0.773   0.779   0.786   0.775   0.768   0.813   0.762   0.713   0.740   0.771   0.796   0.823   0.858   0.848   0.780   0.723   0.666   0.677   0.657   0.658   0.704   0.724   0.686   0.670   0.636   0.661   0.666   0.629   0.675   0.632   0.582   0.673   0.699   0.750   0.711   0.701   0.718   0.695   0.701   0.639   0.615   0.580   0.610   0.635   0.653   0.671   0.680   0.678   0.707   0.785   0.794   0.797   0.787   0.784   0.828   0.753   0.672   0.675   0.620   0.642   0.670   0.658   0.648   0.583   0.625   0.642   0.664   0.621   0.645   0.668   0.674   0.665   0.656   0.677   0.634   0.632   0.667   0.695   0.721   0.752   0.725   0.738   0.679   0.732   0.741   0.757   0.739   0.751
   335.80    0.703   0.713   0.751   0.704   0.681   0.603   0.573   0.654   0.607   0.546   0.549   0.558   0.631   0.658   0.668   0.716   0.741   0.736   0.771   0.723   0.739   0.740   0.718   0.689   0.691   0.658   0.606   0.608   0.645   0.688   0.725   0.752   0.712   0.692   0.716   0.733   0.768   0.774   0.712   0.776   0.756   0.773   0.760   0.775   0.724   0.712   0.693   0.661   0.707   0.768   0.743   0.764   0.744   0.735   0.667   0.673   0.672   0.639   0.622   0.674   0.632   0.611   0.615   0.663   0.676   0.679   0.735   0.729   0.785   0.814   0.842   0.767   0.735   0.687   0.736   0.771   0.741   0.776   0.752   0.737   0.787   0.747   0.797   0.771   0.769   0.738   0.719   0.686   0.682   0.685   0.666   0.676   0.696   0.711   0.742   0.734   0.728   0.697   0.755   0.776   0.770   0.811   0.786   0.753   0.782   0.769   0.775   0.794   0.793   0.784   0.795   0.749   0.667   0.697   0.735   0.747   0.791   0.759   0.799   0.717   0.713   0.702   0.652   0.670   0.677   0.677   0.673   0.681   0.673   0.651   0.650   0.610   0.617   0.629   0.618   0.628   0.675   0.696   0.712   0.726   0.661   0.647   0.647   0.672   0.670   0.631   0.654   0.652   0.707   0.658   0.688   0.723   0.692   0.771   0.812   0.815   0.828   0.844   0.888   0.819   0.749   0.766   0.685   0.619   0.633   0.626   0.631   0.622   0.602   0.623   0.657   0.632   0.648   0.686   0.683   0.737   0.689   0.656   0.669   0.662   0.662   0.676   0.718   0.697   0.737   0.746   0.677   0.686   0.724   0.720   0.703   0.730   0.725
   326.50    0.732   0.713   0.715   0.705   0.654   0.587   0.602   0.650   0.669   0.626   0.586   0.589   0.651   0.623   0.628   0.659   0.700   0.735   0.731   0.707   0.713   0.691   0.697   0.739   0.692   0.653   0.635   0.597   0.627   0.674   0.673   0.720   0.694   0.717   0.761   0.771   0.755   0.754   0.724   0.785   0.760   0.728   0.742   0.719   0.724   0.718   0.665   0.661   0.721   0.783   0.767   0.736   0.729   0.725   0.715   0.650   0.654   0.631   0.617   0.635   0.623   0.625   0.591   0.657   0.658   0.718   0.739   0.723   0.774   0.780   0.813   0.748   0.726   0.695   0.717   0.722   0.761   0.781   0.811   0.810   0.802   0.779   0.812   0.772   0.788   0.725   0.688   0.742   0.755   0.711   0.651   0.666   0.663   0.706   0.730   0.742   0.751   0.696   0.678   0.728   0.737   0.763   0.726   0.717   0.736   0.757   0.757   0.769   0.809   0.773   0.729   0.717   0.668   0.746   0.733   0.797   0.796   0.780   0.750   0.733   0.697   0.723   0.658   0.644   0.655   0.663   0.671   0.636   0.647   0.647   0.633   0.649   0.605   0.618   0.625   0.677   0.668   0.674   0.694   0.684   0.637   0.644   0.633   0.635   0.661   0.636   0.666   0.686   0.629   0.687   0.682   0.756   0.723   0.740   0.824   0.746   0.743   0.711   0.800   0.809   0.761   0.749   0.667   0.627   0.576   0.605   0.589   0.579   0.575   0.630   0.653   0.665   0.693   0.663   0.709   0.710   0.749   0.672   0.651   0.691   0.699   0.701   0.736   0.719   0.736   0.718   0.678   0.668   0.768   0.719   0.732   0.772   0.777
   317.20    0.698   0.678   0.686   0.668   0.623   0.589   0.602   0.598   0.612   0.653   0.570   0.584   0.618   0.589   0.628   0.624   0.726   0.758   0.785   0.750   0.737   0.730   0.749   0.720   0.709   0.685   0.643   0.622   0.637   0.666   0.691   0.777   0.729   0.715   0.724   0.745   0.719   0.731   0.744   0.737   0.761   0.731   0.744   0.768   0.736   0.694   0.651   0.664   0.690   0.735   0.753   0.786   0.746   0.701   0.695   0.667   0.643   0.601   0.607   0.616   0.626   0.627   0.611   0.654   0.658   0.667   0.703   0.768   0.730   0.729   0.726   0.731   0.702   0.771   0.737   0.754   0.751   0.782   0.838   0.902   0.906   0.869   0.836   0.792   0.785   0.782   0.729   0.727   0.747   0.743   0.593   0.608   0.642   0.684   0.742   0.723   0.717   0.672   0.734   0.739   0.786   0.815   0.757   0.739   0.678   0.720   0.709   0.793   0.780   0.730   0.680   0.639   0.685   0.686   0.760   0.754   0.785   0.763   0.719   0.717   0.744   0.712   0.687   0.654   0.641   0.650   0.682   0.653   0.630   0.602   0.619   0.670   0.596   0.632   0.675   0.674   0.681   0.645   0.656   0.659   0.663   0.608   0.592   0.585   0.612   0.660   0.674   0.654   0.654   0.682   0.691   0.712   0.729   0.723   0.742   0.734   0.695   0.740   0.767   0.766   0.749   0.707   0.670   0.621   0.651   0.639   0.584   0.567   0.601   0.652   0.673   0.641   0.678   0.669   0.691   0.704   0.686   0.681   0.669   0.764   0.706   0.712   0.700   0.731   0.697   0.628   0.656   0.674   0.704   0.763   0.739   0.773   0.759
   307.90    0.705   0.701   0.658   0.670   0.594   0.575   0.636   0.629   0.682   0.630   0.630   0.628   0.620   0.619   0.604   0.660   0.701   0.760   0.767   0.716   0.690   0.682   0.682   0.688   0.697   0.734   0.693   0.632   0.634   0.662   0.708   0.721   0.724   0.668   0.706   0.691   0.741   0.732   0.750   0.689   0.770   0.789   0.739   0.757   0.744   0.708   0.691   0.664   0.689   0.727   0.748   0.774   0.703   0.652   0.642   0.640   0.630   0.647   0.621   0.667   0.652   0.665   0.671   0.665   0.621   0.645   0.689   0.759   0.739   0.750   0.770   0.719   0.721   0.711   0.728   0.772   0.761   0.816   0.826   0.874   0.908   0.896   0.808   0.783   0.734   0.707   0.648   0.667   0.707   0.678   0.609   0.667   0.643   0.654   0.658   0.666   0.691   0.735   0.758   0.782   0.793   0.736   0.720   0.699   0.713   0.699   0.798   0.729   0.725   0.729   0.659   0.655   0.639   0.688   0.790   0.765   0.790   0.743   0.695   0.683   0.689   0.694   0.703   0.663   0.621   0.617   0.683   0.697   0.619   0.688   0.630   0.581   0.609   0.654   0.658   0.632   0.652   0.642   0.644   0.633   0.656   0.647   0.573   0.598   0.628   0.638   0.635   0.634   0.693   0.693   0.685   0.672   0.688   0.650   0.708   0.734   0.714   0.701   0.707   0.708   0.727   0.696   0.739   0.692   0.685   0.683   0.659   0.656   0.671   0.661   0.728   0.735   0.726   0.745   0.687   0.738   0.734   0.721   0.743   0.734   0.776   0.743   0.736   0.761   0.714   0.668   0.650   0.670   0.732   0.745   0.786   0.768   0.756
   298.60    0.739   0.720   0.700   0.701   0.654   0.646   0.594   0.660   0.643   0.624   0.665   0.682   0.638   0.600   0.653   0.669   0.708   0.731   0.704   0.700   0.701   0.690   0.707   0.750   0.708   0.729   0.697   0.665   0.651   0.638   0.646   0.687   0.681   0.654   0.652   0.656   0.720   0.693   0.704   0.690   0.774   0.786   0.773   0.817   0.809   0.774   0.758   0.692   0.675   0.672   0.681   0.709   0.688   0.630   0.634   0.646   0.661   0.624   0.655   0.694   0.642   0.622   0.629   0.630   0.596   0.635   0.694   0.696   0.732   0.775   0.769   0.792   0.793   0.756   0.727   0.761   0.765   0.742   0.848   0.861   0.901   0.912   0.824   0.816   0.804   0.733   0.699   0.663   0.683   0.675   0.686   0.675   0.646   0.621   0.661   0.667   0.709   0.742   0.806   0.780   0.731   0.702   0.700   0.740   0.723   0.702   0.771   0.755   0.755   0.705   0.701   0.662   0.651   0.695   0.728   0.762   0.708   0.720   0.658   0.731   0.703   0.655   0.652   0.672   0.650   0.669   0.679   0.662   0.644   0.625   0.618   0.623   0.611   0.615   0.614   0.631   0.655   0.638   0.655   0.691   0.650   0.649   0.642   0.599   0.612   0.618   0.604   0.641   0.672   0.666   0.645   0.636   0.628   0.674   0.725   0.685   0.715   0.648   0.655   0.670   0.727   0.690   0.702   0.734   0.706   0.706   0.688   0.718   0.719   0.758   0.799   0.779   0.752   0.737   0.742   0.687   0.728   0.750   0.726   0.779   0.754   0.762   0.792   0.761   0.734   0.721   0.724   0.739   0.759   0.811   0.810   0.767   0.785
   289.30    0.693   0.697   0.656   0.632   0.611   0.639   0.597   0.633   0.654   0.647   0.647   0.690   0.667   0.615   0.652   0.706   0.724   0.733   0.689   0.692   0.700   0.677   0.719   0.707   0.677   0.684   0.718   0.691   0.655   0.627   0.631   0.657   0.637   0.609   0.610   0.647   0.678   0.687   0.711   0.760   0.726   0.720   0.778   0.800   0.783   0.773   0.721   0.697   0.676   0.633   0.678   0.706   0.661   0.610   0.552   0.583   0.575   0.615   0.626   0.628   0.647   0.632   0.605   0.605   0.640   0.635   0.642   0.696   0.685   0.763   0.732   0.797   0.777   0.763   0.765   0.749   0.740   0.734   0.816   0.893   0.882   0.893   0.878   0.828   0.776   0.776   0.713   0.695   0.717   0.719   0.697   0.716   0.682   0.642   0.610   0.667   0.696   0.750   0.808   0.784   0.753   0.701   0.678   0.666   0.695   0.725   0.724   0.770   0.790   0.703   0.730   0.742   0.677   0.687   0.715   0.745   0.732   0.697   0.715   0.737   0.721   0.635   0.648   0.658   0.683   0.701   0.669   0.632   0.658   0.603   0.612   0.623   0.573   0.548   0.563   0.611   0.649   0.648   0.659   0.642   0.625   0.616   0.615   0.593   0.619   0.609   0.621   0.623   0.618   0.624   0.614   0.616   0.669   0.671   0.743   0.719   0.710   0.691   0.676   0.651   0.658   0.648   0.692   0.722   0.718   0.722   0.732   0.706   0.765   0.828   0.837   0.805   0.804   0.770   0.730   0.775   0.760   0.724   0.798   0.803   0.781   0.743   0.742   0.786   0.781   0.791   0.755   0.756   0.778   0.835   0.836   0.764   0.761
   280.00    0.634   0.699   0.667   0.662   0.645   0.628   0.655   0.612   0.630   0.656   0.640   0.667   0.642   0.684   0.690   0.719   0.727   0.697   0.680   0.734   0.723   0.677   0.695   0.697   0.698   0.666   0.688   0.697   0.653   0.602   0.613   0.646   0.699   0.631   0.612   0.651   0.634   0.683   0.708   0.751   0.778   0.759   0.743   0.784   0.736   0.770   0.754   0.725   0.704   0.638   0.665   0.642   0.601   0.560   0.550   0.565   0.587   0.611   0.645   0.648   0.624   0.619   0.575   0.598   0.613   0.625   0.650   0.651   0.697   0.720   0.723   0.747   0.764   0.735   0.766   0.748   0.792   0.733   0.760   0.851   0.901   0.902   0.835   0.791   0.750   0.747   0.728   0.712   0.731   0.735   0.704   0.728   0.736   0.657   0.627   0.639   0.693   0.727   0.781   0.807   0.715   0.662   0.657   0.702   0.689   0.688   0.702   0.702   0.750   0.703   0.732   0.696   0.682   0.660   0.700   0.730   0.726   0.704   0.761   0.759   0.752   0.664   0.654   0.627   0.676   0.656   0.677   0.632   0.630   0.651   0.658   0.601   0.567   0.559   0.560   0.573   0.659   0.661   0.640   0.645   0.677   0.674   0.639   0.657   0.632   0.649   0.648   0.649   0.639   0.595   0.644   0.643   0.666   0.692   0.735   0.698   0.725   0.712   0.676   0.689   0.662   0.685   0.684   0.688   0.698   0.676   0.661   0.707   0.769   0.821   0.829   0.774   0.814   0.822   0.779   0.801   0.758   0.769   0.808   0.760   0.845   0.789   0.774   0.772   0.751   0.758   0.765   0.788   0.767   0.813   0.767   0.728   0.792
   270.70    0.652   0.701   0.659   0.686   0.712   0.678   0.683   0.660   0.648   0.685   0.631   0.678   0.662   0.653   0.694   0.667   0.748   0.719   0.747   0.709   0.729   0.687   0.665   0.721   0.664   0.672   0.674   0.635   0.651   0.622   0.581   0.645   0.680   0.680   0.663   0.664   0.704   0.700   0.667   0.718   0.774   0.763   0.749   0.717   0.756   0.761   0.721   0.682   0.739   0.673   0.620   0.607   0.656   0.610   0.602   0.577   0.599   0.611   0.661   0.628   0.599   0.593   0.601   0.595   0.607   0.636   0.666   0.665   0.678   0.664   0.696   0.664   0.704   0.739   0.789   0.782   0.804   0.765   0.793   0.805   0.858   0.837   0.806   0.834   0.805   0.785   0.730   0.718   0.709   0.734   0.752   0.753   0.706   0.651   0.647   0.704   0.698   0.710   0.784   0.757   0.694   0.720   0.678   0.679   0.702   0.700   0.692   0.664   0.708   0.701   0.737   0.701   0.690   0.660   0.712   0.746   0.726   0.726   0.730   0.702   0.718   0.625   0.657   0.635   0.670   0.667   0.636   0.628   0.606   0.615   0.597   0.607   0.606   0.574   0.591   0.653   0.664   0.616   0.626   0.626   0.681   0.652   0.663   0.672   0.620   0.654   0.650   0.669   0.628   0.651   0.622   0.666   0.638   0.670   0.717   0.765   0.714   0.681   0.665   0.663   0.673   0.669   0.676   0.689   0.664   0.661   0.645   0.695   0.671   0.765   0.773   0.754   0.795   0.782   0.758   0.802   0.833   0.812   0.848   0.828   0.798   0.746   0.758   0.722   0.679   0.703   0.737   0.749   0.739   0.766   0.771   0.776   0.772
   261.40    0.697   0.727   0.742   0.720   0.741   0.733   0.678   0.675   0.667   0.659   0.659   0.649   0.668   0.657   0.631   0.688   0.708   0.748   0.757   0.726   0.719   0.676   0.657   0.669   0.666   0.619   0.646   0.669   0.623   0.631   0.628   0.673   0.680   0.658   0.661   0.679   0.702   0.730   0.712   0.706   0.736   0.761   0.755   0.787   0.777   0.733   0.712   0.704   0.692   0.687   0.657   0.641   0.631   0.598   0.598   0.558   0.616   0.611   0.660   0.641   0.608   0.606   0.622   0.649   0.608   0.607   0.622   0.622   0.628   0.624   0.663   0.654   0.737   0.743   0.791   0.753   0.763   0.797   0.804   0.795   0.858   0.811   0.782   0.787   0.797   0.748   0.714   0.740   0.719   0.772   0.768   0.780   0.667   0.699   0.699   0.682   0.734   0.748   0.792   0.765   0.733   0.743   0.720   0.683   0.718   0.736   0.733   0.705   0.715   0.703   0.730   0.717   0.667   0.682   0.706   0.652   0.697   0.699   0.710   0.729   0.676   0.659   0.679   0.685   0.691   0.625   0.621   0.595   0.577   0.567   0.593   0.576   0.576   0.562   0.613   0.649   0.652   0.626   0.611   0.656   0.655   0.661   0.676   0.675   0.685   0.684   0.624   0.620   0.669   0.635   0.611   0.657   0.653   0.721   0.773   0.728   0.717   0.666   0.645   0.636   0.659   0.681   0.696   0.688   0.689   0.703   0.662   0.699   0.713   0.665   0.783   0.813   0.781   0.750   0.775   0.802   0.859   0.841   0.855   0.817   0.829   0.771   0.743   0.693   0.713   0.720   0.717   0.682   0.756   0.806   0.756   0.768   0.829
   252.10    0.694   0.712   0.742   0.702   0.722   0.727   0.718   0.675   0.687   0.685   0.611   0.609   0.646   0.618   0.637   0.666   0.656   0.686   0.731   0.745   0.725   0.662   0.676   0.684   0.629   0.632   0.625   0.600   0.608   0.622   0.651   0.656   0.678   0.706   0.683   0.662   0.680   0.679   0.712   0.749   0.708   0.743   0.697   0.790   0.776   0.783   0.743   0.733   0.732   0.691   0.682   0.699   0.646   0.621   0.623   0.599   0.627   0.614   0.604   0.635   0.655   0.608   0.615   0.658   0.615   0.627   0.627   0.618   0.651   0.667   0.641   0.688   0.777   0.780   0.760   0.772   0.791   0.822   0.789   0.827   0.809   0.812   0.800   0.857   0.784   0.742   0.751   0.752   0.749   0.779   0.787   0.752   0.736   0.724   0.679   0.699   0.742   0.717   0.798   0.770   0.768   0.759   0.714   0.649   0.702   0.718   0.729   0.724   0.752   0.722   0.724   0.770   0.697   0.704   0.657   0.662   0.647   0.693   0.662   0.685   0.627   0.609   0.633   0.668   0.678   0.643   0.599   0.581   0.574   0.614   0.680   0.582   0.549   0.560   0.579   0.612   0.632   0.662   0.645   0.663   0.715   0.672   0.663   0.680   0.648   0.640   0.633   0.635   0.654   0.681   0.639   0.646   0.719   0.751   0.758   0.741   0.741   0.665   0.700   0.666   0.641   0.690   0.678   0.714   0.699   0.624   0.660   0.703   0.658   0.656   0.714   0.763   0.741   0.751   0.765   0.811   0.801   0.852   0.871   0.814   0.807   0.781   0.741   0.683   0.664   0.718   0.678   0.628   0.740   0.797   0.800   0.825   0.831
   242.80    0.682   0.644   0.687   0.689   0.753   0.733   0.735   0.724   0.694   0.673   0.652   0.585   0.580   0.561   0.603   0.602   0.646   0.714   0.692   0.681   0.706   0.728   0.702   0.667   0.675   0.638   0.635   0.595   0.613   0.630   0.633   0.676   0.690   0.715   0.709   0.705   0.626   0.716   0.757   0.716   0.728   0.736   0.681   0.766   0.781   0.752   0.762   0.750   0.720   0.752   0.655   0.684   0.663   0.664   0.609   0.624   0.593   0.612   0.571   0.597   0.588   0.596   0.639   0.639   0.629   0.641   0.614   0.608   0.651   0.650   0.676   0.750   0.786   0.754   0.722   0.742   0.781   0.771   0.748   0.784   0.756   0.762   0.817   0.838   0.815   0.765   0.780   0.754   0.777   0.745   0.802   0.796   0.784   0.762   0.740   0.722   0.785   0.831   0.818   0.814   0.807   0.789   0.759   0.737   0.754   0.738   0.702   0.760   0.789   0.788   0.753   0.755   0.734   0.766   0.699   0.712   0.718   0.720   0.685   0.652   0.596   0.578   0.636   0.594   0.664   0.641   0.632   0.626   0.632   0.628   0.661   0.603   0.566   0.557   0.563   0.593   0.644   0.697   0.715   0.722   0.694   0.672   0.664   0.691   0.651   0.650   0.602   0.618   0.641   0.623   0.644   0.650   0.656   0.710   0.738   0.716   0.689   0.642   0.647   0.713   0.712   0.704   0.691   0.737   0.710   0.689   0.640   0.631   0.627   0.640   0.687   0.772   0.787   0.814   0.771   0.767   0.800   0.828   0.779   0.789   0.763   0.752   0.695   0.691   0.659   0.697   0.661   0.711   0.793   0.815   0.810   0.830   0.815
   233.50    0.670   0.668   0.652   0.709   0.692   0.728   0.744   0.761   0.706   0.698   0.645   0.595   0.592   0.562   0.573   0.634   0.671   0.679   0.692   0.691   0.715   0.685   0.700   0.713   0.660   0.625   0.643   0.630   0.625   0.634   0.659   0.685   0.717   0.691   0.670   0.670   0.723   0.726   0.716   0.725   0.729   0.729   0.702   0.738   0.727   0.747   0.775   0.737   0.732   0.739   0.678   0.700   0.672   0.654   0.625   0.592   0.588   0.598   0.610   0.582   0.548   0.600   0.621   0.622   0.653   0.614   0.626   0.650   0.657   0.647   0.691   0.711   0.721   0.685   0.680   0.704   0.746   0.786   0.774   0.778   0.778   0.780   0.821   0.846   0.843   0.773   0.747   0.740   0.795   0.793   0.824   0.784   0.813   0.802   0.744   0.707   0.710   0.762   0.800   0.840   0.874   0.821   0.794   0.762   0.696   0.737   0.793   0.833   0.847   0.810   0.789   0.776   0.786   0.766   0.721   0.702   0.706   0.685   0.664   0.637   0.587   0.611   0.627   0.651   0.662   0.647   0.643   0.640   0.633   0.654   0.630   0.629   0.562   0.556   0.559   0.571   0.650   0.678   0.689   0.679   0.699   0.707   0.652   0.663   0.638   0.668   0.641   0.608   0.621   0.666   0.685   0.675   0.643   0.650   0.686   0.660   0.646   0.623   0.706   0.679   0.701   0.756   0.717   0.706   0.737   0.686   0.645   0.661   0.661   0.635   0.709   0.784   0.729   0.777   0.742   0.743   0.770   0.793   0.716   0.720   0.709   0.698   0.712   0.664   0.697   0.671   0.705   0.763   0.835   0.867   0.902   0.865   0.817
   224.20    0.679   0.663   0.686   0.664   0.679   0.715   0.732   0.737   0.689   0.657   0.604   0.602   0.563   0.622   0.585   0.627   0.723   0.725   0.733   0.687   0.655   0.660   0.689   0.733   0.696   0.701   0.647   0.659   0.614   0.637   0.689   0.686   0.679   0.691   0.652   0.699   0.714   0.756   0.796   0.776   0.754   0.768   0.687   0.707   0.752   0.741   0.769   0.711   0.699   0.688   0.626   0.670   0.673   0.622   0.584   0.605   0.619   0.601   0.546   0.554   0.568   0.597   0.563   0.582   0.631   0.653   0.657   0.646   0.633   0.687   0.650   0.682   0.680   0.650   0.672   0.743   0.721   0.771   0.741   0.793   0.768   0.811   0.799   0.833   0.850   0.828   0.805   0.777   0.773   0.794   0.800   0.790   0.829   0.819   0.765   0.694   0.702   0.719   0.765   0.803   0.869   0.824   0.854   0.777   0.755   0.824   0.793   0.821   0.853   0.840   0.770   0.781   0.768   0.745   0.773   0.728   0.678   0.657   0.678   0.612   0.609   0.608   0.638   0.667   0.665   0.667   0.688   0.675   0.634   0.671   0.619   0.612   0.553   0.552   0.581   0.637   0.682   0.701   0.675   0.635   0.644   0.679   0.650   0.684   0.661   0.649   0.638   0.621   0.636   0.647   0.712   0.676   0.664   0.634   0.620   0.659   0.616   0.622   0.691   0.712   0.802   0.774   0.756   0.688   0.709   0.672   0.670   0.663   0.667   0.681   0.685   0.712   0.742   0.699   0.757   0.710   0.730   0.735   0.697   0.695   0.687   0.720   0.709   0.698   0.698   0.734   0.807   0.839   0.816   0.875   0.908   0.868   0.833
   214.90    0.693   0.639   0.644   0.658   0.662   0.675   0.718   0.717   0.691   0.670   0.612   0.602   0.570   0.626   0.643   0.652   0.705   0.726   0.755   0.741   0.696   0.656   0.706   0.661   0.722   0.652   0.680   0.679   0.634   0.637   0.674   0.691   0.653   0.679   0.709   0.731   0.729   0.720   0.778   0.799   0.760   0.704   0.662   0.688   0.724   0.732   0.705   0.698   0.659   0.656   0.703   0.654   0.637   0.594   0.594   0.614   0.624   0.591   0.580   0.568   0.581   0.577   0.570   0.554   0.597   0.628   0.640   0.656   0.679   0.648   0.628   0.717   0.653   0.648   0.640   0.679   0.770   0.748   0.724   0.767   0.771   0.780   0.829   0.847   0.822   0.807   0.795   0.773   0.760   0.772   0.811   0.815   0.812   0.790   0.730   0.780   0.727   0.747   0.769   0.822   0.829   0.815   0.792   0.800   0.818   0.826   0.818   0.815   0.783   0.760   0.799   0.756   0.764   0.818   0.795   0.717   0.688   0.669   0.643   0.634   0.604   0.586   0.637   0.638   0.658   0.671   0.743   0.661   0.697   0.672   0.634   0.615   0.630   0.631   0.648   0.655   0.640   0.653   0.664   0.648   0.578   0.600   0.648   0.660   0.687   0.683   0.650   0.595   0.598   0.648   0.660   0.687   0.657   0.646   0.622   0.625   0.640   0.618   0.656   0.716   0.748   0.755   0.716   0.723   0.704   0.707   0.715   0.706   0.619   0.660   0.699   0.742   0.710   0.721   0.708   0.706   0.733   0.722   0.685   0.676   0.733   0.758   0.798   0.711   0.714   0.732   0.795   0.783   0.762   0.828   0.851   0.825   0.786
   205.60    0.670   0.665   0.674   0.697   0.717   0.650   0.649   0.660   0.646   0.577   0.617   0.613   0.610   0.637   0.662   0.683   0.706   0.715   0.681   0.709   0.744   0.705   0.701   0.706   0.691   0.654   0.649   0.657   0.700   0.675   0.738   0.674   0.651   0.661   0.710   0.713   0.702   0.753   0.758   0.782   0.786   0.725   0.691   0.703   0.735   0.750   0.718   0.658   0.704   0.624   0.661   0.641   0.627   0.615   0.583   0.600   0.628   0.619   0.615   0.575   0.523   0.562   0.581   0.575   0.556   0.594   0.642   0.684   0.677   0.640   0.676   0.666   0.667   0.642   0.668   0.676   0.718   0.688   0.694   0.714   0.740   0.808   0.815   0.801   0.837   0.863   0.820   0.822   0.862   0.836   0.818   0.796   0.802   0.784   0.741   0.780   0.763   0.769   0.743   0.787   0.820   0.811   0.841   0.834   0.818   0.800   0.784   0.814   0.775   0.777   0.765   0.731   0.774   0.795   0.756   0.711   0.709   0.665   0.685   0.628   0.622   0.605   0.614   0.683   0.653   0.714   0.764   0.730   0.703   0.650   0.654   0.641   0.589   0.603   0.595   0.589   0.642   0.642   0.645   0.620   0.586   0.631   0.620   0.615   0.648   0.642   0.654   0.656   0.603   0.612   0.611   0.595   0.599   0.622   0.602   0.632   0.643   0.620   0.646   0.705   0.716   0.734   0.768   0.691   0.706   0.707   0.735   0.693   0.663   0.653   0.679   0.698   0.661   0.653   0.714   0.749   0.693   0.701   0.695   0.639   0.665   0.719   0.762   0.756   0.742   0.732   0.773   0.795   0.769   0.820   0.863   0.797   0.790
   196.30    0.639   0.658   0.670   0.678   0.696   0.670   0.617   0.669   0.658   0.673   0.607   0.621   0.585   0.631   0.676   0.688   0.737   0.687   0.711   0.734   0.707   0.680   0.681   0.687   0.705   0.683   0.667   0.715   0.705   0.722   0.746   0.713   0.669   0.678   0.657   0.683   0.674   0.682   0.695   0.744   0.815   0.736   0.722   0.672   0.708   0.725   0.710   0.737   0.679   0.663   0.671   0.657   0.665   0.644   0.624   0.619   0.620   0.604   0.582   0.540   0.556   0.598   0.579   0.583   0.635   0.638   0.640   0.657   0.631   0.617   0.650   0.654   0.692   0.684   0.728   0.682   0.656   0.669   0.659   0.708   0.730   0.777   0.802   0.787   0.789   0.812   0.782   0.803   0.832   0.890   0.813   0.768   0.845   0.804   0.777   0.753   0.783   0.762   0.748   0.758   0.793   0.790   0.808   0.781   0.810   0.803   0.758   0.790   0.770   0.737   0.745   0.709   0.788   0.773   0.776   0.699   0.714   0.672   0.705   0.644   0.630   0.616   0.619   0.623   0.679   0.721   0.733   0.751   0.761   0.730   0.677   0.679   0.630   0.611   0.621   0.597   0.600   0.648   0.643   0.658   0.677   0.588   0.628   0.596   0.627   0.687   0.626   0.612   0.588   0.629   0.640   0.599   0.584   0.593   0.604   0.620   0.585   0.622   0.638   0.675   0.695   0.665   0.695   0.700   0.729   0.716   0.713   0.703   0.697   0.677   0.683   0.716   0.633   0.624   0.654   0.686   0.675   0.685   0.619   0.642   0.678   0.671   0.731   0.750   0.727   0.714   0.744   0.774   0.821   0.804   0.817   0.753   0.768
   187.00    0.654   0.617   0.626   0.641   0.678   0.657   0.649   0.637   0.663   0.655   0.635   0.597   0.606   0.605   0.655   0.684   0.684   0.686   0.692   0.700   0.724   0.722   0.692   0.663   0.649   0.669   0.694   0.743   0.761   0.757   0.727   0.700   0.700   0.682   0.722   0.659   0.676   0.725   0.748   0.767   0.804   0.799   0.790   0.704   0.715   0.708   0.740   0.719   0.670   0.679   0.684   0.681   0.645   0.684   0.636   0.604   0.614   0.593   0.592   0.546   0.572   0.620   0.631   0.627   0.601   0.601   0.588   0.565   0.578   0.594   0.645   0.672   0.682   0.707   0.736   0.736   0.716   0.661   0.686   0.717   0.705   0.758   0.720   0.716   0.736   0.745   0.695   0.763   0.809   0.845   0.862   0.809   0.836   0.824   0.848   0.826   0.782   0.807   0.749   0.769   0.802   0.829   0.816   0.812   0.800   0.791   0.801   0.765   0.714   0.705   0.700   0.743   0.760   0.796   0.732   0.727   0.744   0.679   0.671   0.651   0.653   0.588   0.647   0.682   0.704   0.705   0.762   0.758   0.776   0.704   0.707   0.684   0.656   0.698   0.644   0.596   0.635   0.647   0.648   0.613   0.626   0.632   0.624   0.612   0.635   0.662   0.617   0.611   0.611   0.679   0.642   0.621   0.597   0.604   0.598   0.623   0.604   0.615   0.639   0.654   0.670   0.695   0.668   0.679   0.716   0.725   0.752   0.770   0.689   0.678   0.680   0.678   0.730   0.684   0.692   0.698   0.648   0.662   0.650   0.630   0.656   0.687   0.706   0.732   0.765   0.719   0.794   0.816   0.787   0.731   0.752   0.719   0.729
   177.70    0.661   0.672   0.649   0.658   0.672   0.696   0.643   0.632   0.642   0.650   0.626   0.619   0.596   0.625   0.639   0.661   0.666   0.692   0.645   0.715   0.755   0.706   0.738   0.703   0.672   0.628   0.677   0.700   0.743   0.756   0.704   0.691   0.639   0.629   0.680   0.668   0.652   0.695   0.706   0.750   0.787   0.802   0.786   0.703   0.709   0.709   0.706   0.708   0.630   0.652   0.662   0.612   0.647   0.723   0.680   0.653   0.614   0.588   0.574   0.565   0.625   0.628   0.639   0.645   0.623   0.629   0.610   0.622   0.595   0.606   0.670   0.672   0.633   0.656   0.665   0.744   0.763   0.742   0.739   0.717   0.716   0.751   0.716   0.706   0.766   0.717   0.644   0.745   0.777   0.802   0.847   0.829   0.845   0.895   0.847   0.829   0.814   0.768   0.769   0.734   0.804   0.805   0.804   0.770   0.786   0.776   0.806   0.751   0.722   0.699   0.693   0.752   0.763   0.776   0.713   0.684   0.702   0.680   0.659   0.658   0.657   0.680   0.645   0.703   0.696   0.740   0.755   0.775   0.729   0.708   0.720   0.719   0.694   0.698   0.672   0.632   0.665   0.699   0.675   0.633   0.627   0.617   0.644   0.617   0.636   0.670   0.631   0.592   0.657   0.681   0.681   0.596   0.590   0.620   0.590   0.585   0.631   0.634   0.638   0.647   0.650   0.673   0.637   0.699   0.754   0.724   0.764   0.762   0.719   0.723   0.672   0.690   0.713   0.726   0.730   0.740   0.733   0.686   0.642   0.635   0.646   0.682   0.696   0.689   0.744   0.777   0.756   0.795   0.786   0.728   0.725   0.747   0.727
   168.40    0.719   0.702   0.667   0.677   0.695   0.666   0.620   0.642   0.685   0.657   0.607   0.642   0.681   0.676   0.700   0.686   0.707   0.704   0.720   0.722   0.724   0.719   0.731   0.744   0.679   0.653   0.682   0.751   0.753   0.739   0.709   0.646   0.632   0.646   0.653   0.636   0.616   0.688   0.723   0.713   0.753   0.780   0.750   0.734   0.693   0.733   0.712   0.703   0.663   0.644   0.637   0.605   0.602   0.639   0.655   0.638   0.629   0.567   0.573   0.565   0.594   0.601   0.616   0.610   0.594   0.670   0.655   0.631   0.632   0.626   0.677   0.712   0.667   0.670   0.691   0.742   0.777   0.769   0.749   0.730   0.765   0.730   0.730   0.736   0.775   0.697   0.675   0.730   0.731   0.795   0.882   0.815   0.814   0.851   0.849   0.832   0.783   0.713   0.750   0.775   0.818   0.842   0.812   0.829   0.837   0.784   0.796   0.761   0.727   0.707   0.722   0.719   0.702   0.713   0.707   0.663   0.684   0.680   0.669   0.686   0.667   0.711   0.674   0.682   0.676   0.742   0.767   0.765   0.762   0.710   0.687   0.687   0.702   0.669   0.680   0.655   0.695   0.671   0.664   0.622   0.644   0.613   0.623   0.628   0.630   0.647   0.638   0.634   0.658   0.687   0.651   0.616   0.566   0.573   0.554   0.629   0.651   0.700   0.656   0.642   0.665   0.657   0.642   0.671   0.707   0.740   0.705   0.745   0.721   0.687   0.690   0.699   0.728   0.763   0.755   0.809   0.747   0.678   0.642   0.611   0.641   0.718   0.753   0.713   0.737   0.751   0.731   0.797   0.783   0.668   0.681   0.731   0.712
   159.10    0.700   0.710   0.660   0.677   0.661   0.652   0.635   0.627   0.673   0.684   0.667   0.672   0.708   0.738   0.689   0.715   0.718   0.759   0.763   0.764   0.751   0.761   0.695   0.728   0.672   0.664   0.675   0.713   0.751   0.726   0.683   0.670   0.642   0.643   0.609   0.630   0.653   0.683   0.727   0.766   0.786   0.773   0.730   0.717   0.744   0.741   0.675   0.687   0.707   0.673   0.691   0.636   0.621   0.566   0.635   0.630   0.599   0.569   0.617   0.640   0.655   0.661   0.657   0.680   0.709   0.720   0.704   0.671   0.680   0.661   0.665   0.696   0.711   0.669   0.719   0.725   0.762   0.806   0.803   0.734   0.717   0.753   0.744   0.741   0.771   0.750   0.668   0.700   0.784   0.806   0.849   0.838   0.832   0.856   0.833   0.875   0.825   0.770   0.702   0.732   0.799   0.826   0.831   0.885   0.866   0.821   0.755   0.748   0.730   0.676   0.700   0.678   0.647   0.670   0.665   0.666   0.669   0.669   0.655   0.659   0.635   0.638   0.673   0.644   0.614   0.703   0.752   0.721   0.766   0.711   0.663   0.638   0.677   0.677   0.673   0.640   0.685   0.649   0.659   0.647   0.638   0.610   0.606   0.635   0.624   0.618   0.683   0.665   0.662   0.649   0.692   0.651   0.592   0.552   0.558   0.576   0.642   0.697   0.695   0.651   0.636   0.651   0.680   0.691   0.694   0.676   0.673   0.705   0.738   0.679   0.678   0.764   0.752   0.745   0.788   0.823   0.774   0.699   0.648   0.677   0.671   0.728   0.735   0.756   0.754   0.751   0.761   0.768   0.690   0.697   0.691   0.692   0.703
   149.80    0.731   0.685   0.668   0.640   0.665   0.628   0.586   0.641   0.658   0.707   0.721   0.710   0.707   0.758   0.746   0.726   0.780   0.763   0.756   0.763   0.737   0.753   0.728   0.752   0.683   0.669   0.710   0.713   0.727   0.672   0.669   0.649   0.617   0.643   0.611   0.649   0.594   0.697   0.706   0.731   0.702   0.685   0.676   0.671   0.684   0.714   0.721   0.704   0.731   0.628   0.686   0.714   0.645   0.599   0.592   0.621   0.635   0.610   0.636   0.715   0.654   0.678   0.699   0.714   0.727   0.730   0.739   0.706   0.640   0.677   0.718   0.749   0.709   0.685   0.725   0.739   0.738   0.780   0.772   0.734   0.721   0.787   0.801   0.775   0.775   0.782   0.692   0.698   0.786   0.822   0.835   0.839   0.858   0.893   0.929   0.922   0.868   0.805   0.766   0.809   0.805   0.824   0.832   0.838   0.823   0.817   0.784   0.709   0.694   0.675   0.653   0.631   0.597   0.606   0.656   0.657   0.666   0.679   0.675   0.694   0.629   0.612   0.595   0.595   0.598   0.668   0.697   0.729   0.712   0.678   0.615   0.590   0.638   0.640   0.661   0.682   0.673   0.676   0.670   0.659   0.673   0.655   0.625   0.645   0.663   0.652   0.717   0.684   0.681   0.684   0.679   0.642   0.583   0.604   0.614   0.671   0.645   0.659   0.662   0.652   0.679   0.664   0.641   0.685   0.688   0.671   0.678   0.663   0.663   0.622   0.651   0.715   0.740   0.786   0.771   0.763   0.775   0.733   0.680   0.680   0.670   0.675   0.703   0.719   0.789   0.743   0.759   0.736   0.745   0.745   0.692   0.685   0.718
   140.50    0.689   0.678   0.665   0.676   0.703   0.665   0.677   0.654   0.680   0.676   0.707   0.702   0.686   0.743   0.763   0.714   0.773   0.762   0.733   0.756   0.725   0.718   0.737   0.721   0.716   0.701   0.673   0.671   0.678   0.681   0.674   0.689   0.676   0.645   0.642   0.601   0.597   0.642   0.634   0.627   0.597   0.634   0.624   0.630   0.692   0.711   0.685   0.669   0.672   0.663   0.704   0.690   0.656   0.613   0.610   0.663   0.661   0.653   0.678   0.695   0.684   0.675   0.700   0.690   0.671   0.718   0.672   0.645   0.656   0.661   0.693   0.716   0.733   0.680   0.725   0.738   0.744   0.729   0.773   0.745   0.791   0.773   0.749   0.792   0.823   0.782   0.728   0.738   0.777   0.794   0.864   0.868   0.918   0.933   0.948   0.922   0.853   0.828   0.747   0.771   0.789   0.850   0.868   0.796   0.802   0.808   0.771   0.750   0.747   0.673   0.672   0.677   0.592   0.578   0.578   0.634   0.656   0.638   0.627   0.638   0.643   0.595   0.581   0.572   0.602   0.686   0.700   0.718   0.710   0.706   0.628   0.639   0.644   0.609   0.608   0.688   0.743   0.723   0.721   0.720   0.714   0.678   0.706   0.675   0.677   0.682   0.770   0.752   0.723   0.728   0.678   0.715   0.670   0.715   0.707   0.699   0.696   0.691   0.707   0.639   0.660   0.628   0.644   0.687   0.680   0.661   0.650   0.595   0.599   0.642   0.620   0.685   0.747   0.796   0.824   0.775   0.775   0.756   0.690   0.701   0.693   0.680   0.707   0.742   0.797   0.820   0.750   0.746   0.744   0.765   0.756   0.726   0.793
   131.20    0.684   0.672   0.699   0.698   0.719   0.694   0.687   0.726   0.644   0.666   0.690   0.662   0.667   0.692   0.731   0.694   0.737   0.758   0.773   0.715   0.711   0.708   0.756   0.741   0.755   0.718   0.699   0.631   0.667   0.619   0.645   0.647   0.630   0.646   0.644   0.596   0.599   0.596   0.622   0.584   0.595   0.602   0.634   0.606   0.629   0.655   0.645   0.599   0.656   0.673   0.714   0.665   0.651   0.653   0.669   0.698   0.703   0.704   0.734   0.723   0.712   0.700   0.706   0.659   0.658   0.708   0.657   0.656   0.657   0.650   0.695   0.718   0.674   0.698   0.757   0.696   0.734   0.779   0.758   0.756   0.709   0.755   0.726   0.768   0.764   0.820   0.726   0.741   0.770   0.840   0.882   0.902   0.946   0.945   0.968   0.933   0.872   0.807   0.792   0.839   0.802   0.815   0.795   0.844   0.787   0.751   0.781   0.808   0.774   0.692   0.628   0.657   0.636   0.613   0.586   0.625   0.602   0.626   0.628   0.657   0.638   0.616   0.560   0.605   0.615   0.681   0.685   0.692   0.655   0.668   0.623   0.606   0.650   0.589   0.611   0.657   0.705   0.707   0.711   0.725   0.694   0.733   0.723   0.733   0.752   0.745   0.800   0.791   0.743   0.718   0.756   0.727   0.698   0.710   0.741   0.706   0.738   0.733   0.657   0.648   0.658   0.643   0.649   0.685   0.705   0.669   0.662   0.650   0.665   0.616   0.646   0.701   0.706   0.747   0.786   0.785   0.782   0.754   0.741   0.701   0.671   0.701   0.727   0.750   0.701   0.755   0.740   0.738   0.720   0.731   0.704   0.745   0.761
   121.90    0.718   0.754   0.719   0.736   0.720   0.715   0.705   0.689   0.690   0.709   0.697   0.681   0.705   0.685   0.700   0.694   0.744   0.732   0.693   0.720   0.703   0.705   0.704   0.742   0.766   0.728   0.716   0.629   0.631   0.590   0.583   0.599   0.591   0.619   0.634   0.617   0.602   0.620   0.603   0.602   0.596   0.633   0.628   0.586   0.621   0.638   0.603   0.617   0.646   0.625   0.667   0.653   0.664   0.692   0.703   0.705   0.716   0.713   0.727   0.737   0.745   0.721   0.693   0.641   0.686   0.748   0.695   0.646   0.651   0.670   0.684   0.730   0.754   0.690   0.714   0.720   0.724   0.755   0.780   0.714   0.722   0.796   0.746   0.744   0.752   0.779   0.799   0.805   0.843   0.915   0.932   0.932   0.913   0.921   0.960   0.900   0.871   0.806   0.801   0.835   0.832   0.809   0.817   0.776   0.833   0.814   0.853   0.852   0.786   0.738   0.664   0.629   0.623   0.595   0.633   0.632   0.601   0.606   0.635   0.603   0.661   0.632   0.580   0.612   0.631   0.687   0.641   0.680   0.677   0.728   0.685   0.639   0.625   0.629   0.649   0.682   0.691   0.717   0.708   0.728   0.689   0.713   0.711   0.735   0.759   0.765   0.754   0.797   0.764   0.736   0.747   0.761   0.714   0.724   0.702   0.728   0.773   0.771   0.704   0.699   0.694   0.693   0.671   0.649   0.632   0.679   0.708   0.669   0.636   0.604   0.604   0.679   0.726   0.714   0.765   0.774   0.820   0.785   0.760   0.708   0.682   0.660   0.703   0.716   0.709   0.702   0.730   0.739   0.758   0.743   0.718   0.809   0.862
   112.60    0.689   0.738   0.768   0.731   0.713   0.669   0.696   0.707   0.629   0.689   0.720   0.717   0.721   0.667   0.709   0.697   0.711   0.731   0.719   0.697   0.660   0.669   0.680   0.707   0.746   0.723   0.721   0.700   0.633   0.588   0.601   0.581   0.619   0.604   0.568   0.598   0.601   0.596   0.562   0.600   0.614   0.570   0.602   0.593   0.650   0.633   0.602   0.573   0.571   0.638   0.648   0.674   0.649   0.668   0.689   0.691   0.724   0.700   0.659   0.685   0.711   0.752   0.711   0.709   0.714   0.730   0.689   0.676   0.650   0.648   0.671   0.694   0.717   0.708   0.710   0.756   0.743   0.718   0.680   0.699   0.766   0.807   0.804   0.737   0.805   0.851   0.874   0.852   0.870   0.948   0.996   0.990   0.988   0.958   0.929   0.895   0.858   0.795   0.878   0.840   0.851   0.903   0.852   0.831   0.803   0.871   0.895   0.853   0.844   0.753   0.744   0.647   0.668   0.608   0.634   0.591   0.613   0.636   0.683   0.635   0.661   0.662   0.614   0.618   0.653   0.659   0.650   0.666   0.675   0.643   0.675   0.669   0.633   0.643   0.652   0.648   0.678   0.671   0.729   0.714   0.704   0.679   0.725   0.743   0.725   0.758   0.762   0.745   0.765   0.775   0.766   0.810   0.771   0.813   0.770   0.799   0.765   0.734   0.710   0.715   0.686   0.688   0.633   0.650   0.626   0.647   0.700   0.704   0.584   0.634   0.646   0.707   0.718   0.722   0.744   0.789   0.804   0.785   0.720   0.710   0.635   0.699   0.709   0.713   0.679   0.663   0.746   0.744   0.757   0.746   0.766   0.820   0.876
   103.30    0.672   0.708   0.710   0.689   0.728   0.715   0.735   0.666   0.674   0.705   0.713   0.699   0.656   0.660   0.684   0.673   0.683   0.699   0.671   0.685   0.675   0.640   0.623   0.727   0.726   0.723   0.721   0.654   0.637   0.586   0.570   0.604   0.607   0.552   0.596   0.609   0.607   0.628   0.591   0.637   0.635   0.635   0.677   0.673   0.651   0.604   0.615   0.614   0.651   0.663   0.704   0.675   0.644   0.650   0.668   0.682   0.668   0.668   0.681   0.662   0.723   0.753   0.765   0.741   0.770   0.717   0.663   0.686   0.672   0.665   0.661   0.721   0.762   0.734   0.745   0.720   0.719   0.655   0.697   0.700   0.771   0.789   0.820   0.816   0.812   0.841   0.866   0.877   0.888   0.953   0.978   0.989   0.967   0.973   0.915   0.913   0.827   0.838   0.830   0.846   0.891   0.865   0.830   0.826   0.808   0.849   0.859   0.816   0.832   0.787   0.771   0.736   0.670   0.630   0.642   0.659   0.630   0.648   0.670   0.653   0.684   0.709   0.654   0.701   0.699   0.681   0.641   0.646   0.630   0.666   0.690   0.698   0.666   0.667   0.636   0.689   0.701   0.677   0.712   0.765   0.690   0.672   0.701   0.749   0.740   0.755   0.739   0.690   0.756   0.766   0.829   0.806   0.807   0.823   0.820   0.764   0.770   0.724   0.731   0.696   0.675   0.654   0.634   0.579   0.594   0.669   0.664   0.694   0.628   0.600   0.673   0.699   0.737   0.726   0.779   0.763   0.817   0.779   0.740   0.712   0.647   0.671   0.688   0.695   0.686   0.688   0.694   0.753   0.717   0.762   0.781   0.784   0.836
    94.00    0.608   0.679   0.722   0.722   0.731   0.752   0.714   0.703   0.701   0.692   0.707   0.676   0.656   0.669   0.699   0.708   0.701   0.640   0.639   0.629   0.653   0.593   0.636   0.702   0.666   0.669   0.689   0.684   0.610   0.585   0.561   0.609   0.599   0.605   0.613   0.647   0.629   0.611   0.616   0.611   0.621   0.614   0.664   0.608   0.606   0.646   0.624   0.664   0.704   0.692   0.684   0.710   0.655   0.656   0.630   0.631   0.623   0.676   0.644   0.647   0.698   0.737   0.757   0.742   0.721   0.707   0.656   0.657   0.662   0.667   0.697   0.689   0.703   0.706   0.726   0.694   0.686   0.677   0.744   0.754   0.754   0.814   0.830   0.820   0.871   0.915   0.897   0.963   0.997   0.969   1.027   1.037   0.951   0.938   0.928   0.866   0.856   0.858   0.822   0.768   0.763   0.779   0.792   0.795   0.825   0.862   0.821   0.806   0.793   0.802   0.786   0.745   0.718   0.722   0.749   0.707   0.671   0.693   0.670   0.670   0.689   0.714   0.680   0.696   0.683   0.636   0.658   0.648   0.653   0.695   0.674   0.707   0.739   0.706   0.679   0.725   0.726   0.690   0.715   0.731   0.760   0.710   0.671   0.699   0.730   0.759   0.714   0.730   0.748   0.726   0.789   0.802   0.730   0.799   0.795   0.791   0.784   0.786   0.708   0.706   0.668   0.634   0.576   0.608   0.615   0.674   0.712   0.653   0.641   0.647   0.679   0.666   0.697   0.709   0.724   0.768   0.806   0.755   0.748   0.730   0.668   0.637   0.706   0.689   0.717   0.664   0.696   0.697   0.699   0.740   0.798   0.799   0.842
    84.70    0.644   0.657   0.699   0.682   0.714   0.751   0.646   0.700   0.695   0.707   0.669   0.670   0.639   0.659   0.664   0.667   0.669   0.650   0.642   0.607   0.590   0.600   0.595   0.645   0.626   0.644   0.647   0.693   0.675   0.603   0.593   0.601   0.628   0.632   0.601   0.669   0.643   0.619   0.661   0.654   0.593   0.626   0.649   0.637   0.645   0.638   0.666   0.664   0.729   0.722   0.691   0.670   0.678   0.627   0.635   0.654   0.647   0.647   0.645   0.665   0.652   0.677   0.705   0.693   0.652   0.701   0.695   0.617   0.661   0.678   0.677   0.706   0.690   0.706   0.678   0.728   0.725   0.752   0.755   0.761   0.781   0.777   0.780   0.821   0.860   0.963   0.961   1.025   1.001   1.051   1.017   1.025   0.945   0.899   0.888   0.885   0.839   0.863   0.880   0.822   0.807   0.834   0.825   0.798   0.778   0.811   0.801   0.768   0.789   0.750   0.796   0.752   0.769   0.760   0.781   0.764   0.689   0.662   0.637   0.691   0.687   0.668   0.670   0.670   0.622   0.630   0.674   0.679   0.689   0.698   0.715   0.701   0.682   0.735   0.719   0.675   0.678   0.714   0.717   0.710   0.707   0.683   0.672   0.690   0.708   0.726   0.724   0.684   0.716   0.731   0.766   0.725   0.732   0.746   0.729   0.783   0.777   0.774   0.752   0.726   0.636   0.616   0.587   0.574   0.593   0.655   0.631   0.636   0.654   0.629   0.626   0.660   0.716   0.732   0.678   0.696   0.722   0.729   0.719   0.728   0.693   0.676   0.719   0.729   0.662   0.672   0.686   0.690   0.677   0.730   0.753   0.812   0.829
    75.40    0.701   0.653   0.685   0.704   0.729   0.732   0.730   0.678   0.699   0.718   0.705   0.639   0.657   0.616   0.650   0.700   0.664   0.658   0.626   0.570   0.590   0.615   0.648   0.601   0.643   0.615   0.618   0.665   0.660   0.658   0.643   0.598   0.638   0.685   0.643   0.690   0.657   0.701   0.659   0.643   0.609   0.625   0.653   0.659   0.659   0.593   0.618   0.700   0.679   0.690   0.725   0.674   0.672   0.649   0.670   0.662   0.666   0.622   0.603   0.632   0.682   0.656   0.679   0.728   0.706   0.708   0.691   0.646   0.615   0.683   0.647   0.713   0.676   0.692   0.678   0.717   0.718   0.756   0.732   0.748   0.763   0.720   0.779   0.822   0.912   0.958   1.014   1.016   1.029   1.036   1.014   0.949   0.937   0.940   0.913   0.882   0.859   0.870   0.805   0.795   0.791   0.781   0.787   0.790   0.753   0.778   0.796   0.752   0.746   0.720   0.754   0.771   0.755   0.769   0.793   0.751   0.726   0.710   0.707   0.658   0.672   0.638   0.669   0.627   0.617   0.671   0.696   0.688   0.726   0.740   0.697   0.724   0.762   0.743   0.679   0.714   0.673   0.659   0.701   0.718   0.704   0.728   0.683   0.625   0.713   0.734   0.705   0.686   0.667   0.770   0.802   0.745   0.751   0.755   0.790   0.772   0.793   0.763   0.708   0.693   0.670   0.637   0.627   0.629   0.608   0.653   0.668   0.648   0.684   0.649   0.623   0.648   0.659   0.692   0.682   0.704   0.718   0.709   0.722   0.705   0.714   0.715   0.665   0.649   0.643   0.600   0.584   0.602   0.644   0.641   0.697   0.748   0.750
    66.10    0.664   0.653   0.664   0.680   0.712   0.736   0.729   0.728   0.700   0.654   0.668   0.658   0.646   0.618   0.607   0.663   0.685   0.680   0.604   0.551   0.573   0.596   0.624   0.604   0.608   0.600   0.582   0.611   0.646   0.631   0.644   0.672   0.707   0.747   0.705   0.703   0.688   0.673   0.696   0.668   0.671   0.678   0.709   0.659   0.665   0.646   0.646   0.709   0.668   0.699   0.670   0.708   0.671   0.687   0.647   0.644   0.651   0.635   0.599   0.634   0.659   0.678   0.692   0.719   0.725   0.693   0.643   0.608   0.606   0.640   0.646   0.701   0.718   0.709   0.716   0.712   0.738   0.712   0.777   0.787   0.722   0.820   0.781   0.837   0.928   0.923   0.964   1.028   1.007   1.018   1.003   1.003   0.991   0.937   0.932   0.888   0.899   0.863   0.831   0.745   0.761   0.768   0.786   0.752   0.757   0.774   0.800   0.754   0.745   0.738   0.784   0.791   0.805   0.795   0.775   0.773   0.750   0.732   0.717   0.717   0.687   0.652   0.677   0.673   0.685   0.716   0.705   0.696   0.728   0.725   0.692   0.675   0.681   0.728   0.709   0.708   0.707   0.692   0.634   0.623   0.621   0.701   0.716   0.715   0.750   0.737   0.732   0.677   0.755   0.758   0.778   0.715   0.740   0.814   0.832   0.785   0.715   0.679   0.678   0.691   0.661   0.623   0.647   0.605   0.639   0.670   0.668   0.682   0.639   0.668   0.612   0.607   0.673   0.650   0.673   0.675   0.753   0.750   0.714   0.682   0.684   0.723   0.669   0.614   0.588   0.605   0.616   0.610   0.597   0.668   0.691   0.740   0.734
    56.80    0.643   0.616   0.666   0.693   0.661   0.713   0.715   0.726   0.736   0.697   0.663   0.677   0.688   0.655   0.662   0.644   0.680   0.687   0.609   0.610   0.586   0.604   0.606   0.634   0.627   0.557   0.585   0.614   0.647   0.655   0.697   0.718   0.714   0.752   0.779   0.740   0.706   0.721   0.672   0.641   0.670   0.674   0.653   0.700   0.687   0.682   0.666   0.694   0.756   0.722   0.707   0.721   0.670   0.689   0.701   0.719   0.652   0.632   0.613   0.603   0.593   0.651   0.648   0.683   0.683   0.651   0.651   0.622   0.622   0.602   0.656   0.679   0.708   0.666   0.695   0.714   0.725   0.747   0.748   0.752   0.766   0.807   0.867   0.850   0.927   0.940   0.992   0.983   0.961   1.022   0.989   0.979   0.987   0.972   0.890   0.889   0.909   0.886   0.859   0.810   0.816   0.806   0.768   0.751   0.721   0.768   0.794   0.801   0.779   0.723   0.767   0.726   0.773   0.845   0.848   0.781   0.786   0.749   0.711   0.698   0.681   0.683   0.743   0.714   0.667   0.742   0.732   0.714   0.695   0.682   0.654   0.668   0.738   0.738   0.706   0.713   0.685   0.670   0.593   0.549   0.581   0.627   0.651   0.685   0.714   0.733   0.677   0.655   0.694   0.686   0.742   0.683   0.690   0.760   0.811   0.729   0.703   0.676   0.720   0.691   0.627   0.657   0.647   0.610   0.626   0.715   0.701   0.697   0.657   0.691   0.664   0.625   0.672   0.671   0.691   0.718   0.715   0.683   0.680   0.712   0.730   0.750   0.674   0.647   0.632   0.612   0.627   0.590   0.611   0.617   0.648   0.701   0.700
    47.50    0.666   0.729   0.699   0.701   0.662   0.709   0.686   0.692   0.676   0.681   0.739   0.698   0.715   0.649   0.637   0.636   0.687   0.668   0.641   0.652   0.592   0.597   0.644   0.684   0.666   0.585   0.608   0.646   0.670   0.691   0.716   0.712   0.734   0.724   0.803   0.769   0.776   0.744   0.660   0.672   0.655   0.649   0.640   0.643   0.668   0.641   0.679   0.735   0.755   0.752   0.708   0.730   0.728   0.750   0.720   0.685   0.719   0.658   0.628   0.596   0.618   0.626   0.657   0.668   0.698   0.634   0.617   0.686   0.629   0.611   0.659   0.624   0.608   0.614   0.619   0.657   0.695   0.738   0.735   0.776   0.768   0.842   0.916   0.919   0.918   0.907   0.925   0.916   0.899   0.962   0.943   0.940   0.973   0.959   0.891   0.857   0.937   0.919   0.855   0.811   0.811   0.782   0.780   0.818   0.768   0.786   0.771   0.795   0.812   0.775   0.747   0.745   0.737   0.817   0.798   0.748   0.709   0.717   0.746   0.730   0.712   0.696   0.676   0.733   0.767   0.765   0.770   0.706   0.692   0.651   0.673   0.691   0.730   0.732   0.706   0.682   0.655   0.618   0.583   0.571   0.557   0.574   0.631   0.670   0.696   0.655   0.667   0.689   0.718   0.672   0.687   0.663   0.665   0.667   0.757   0.725   0.679   0.719   0.741   0.628   0.622   0.629   0.664   0.638   0.625   0.713   0.731   0.653   0.677   0.707   0.674   0.666   0.691   0.699   0.691   0.677   0.711   0.691   0.685   0.717   0.728   0.723   0.710   0.703   0.676   0.598   0.575   0.583   0.634   0.648   0.645   0.655   0.686
    38.20    0.665   0.718   0.722   0.719   0.730   0.718   0.672   0.698   0.679   0.647   0.680   0.705   0.680   0.642   0.659   0.611   0.628   0.667   0.672   0.650   0.651   0.629   0.659   0.693   0.679   0.638   0.630   0.647   0.682   0.728   0.736   0.717   0.726   0.706   0.725   0.740   0.727   0.691   0.715   0.713   0.691   0.642   0.633   0.624   0.617   0.637   0.660   0.718   0.710   0.733   0.686   0.736   0.719   0.731   0.698   0.715   0.688   0.658   0.640   0.623   0.631   0.657   0.648   0.632   0.663   0.659   0.631   0.673   0.654   0.624   0.653   0.571   0.628   0.624   0.648   0.681   0.655   0.733   0.787   0.759   0.823   0.851   0.885   0.873   0.876   0.878   0.853   0.890   0.882   0.963   0.954   0.933   0.959   0.980   0.956   0.903   0.918   0.899   0.906   0.813   0.782   0.750   0.774   0.773   0.810   0.807   0.823   0.814   0.865   0.817   0.794   0.853   0.808   0.824   0.781   0.725   0.739   0.764   0.736   0.714   0.748   0.750   0.703   0.748   0.759   0.773   0.781   0.783   0.740   0.681   0.688   0.702   0.704   0.670   0.686   0.669   0.633   0.595   0.576   0.600   0.602   0.612   0.693   0.667   0.669   0.660   0.679   0.716   0.704   0.715   0.670   0.662   0.644   0.703   0.719   0.665   0.682   0.682   0.681   0.682   0.632   0.645   0.659   0.654   0.654   0.733   0.767   0.710   0.723   0.698   0.668   0.679   0.653   0.667   0.669   0.691   0.685   0.661   0.689   0.717   0.701   0.739   0.772   0.732   0.683   0.617   0.637   0.628   0.605   0.622   0.602   0.593   0.686
    28.90    0.701   0.684   0.714   0.691   0.759   0.759   0.688   0.679   0.620   0.655   0.681   0.684   0.698   0.682   0.704   0.679   0.634   0.667   0.706   0.661   0.661   0.639   0.645   0.696   0.673   0.662   0.684   0.661   0.710   0.733   0.765   0.761   0.788   0.732   0.722   0.720   0.746   0.744   0.772   0.731   0.718   0.656   0.651   0.668   0.642   0.639   0.639   0.663   0.645   0.693   0.703   0.724   0.750   0.666   0.687   0.708   0.721   0.676   0.682   0.688   0.622   0.651   0.632   0.630   0.656   0.633   0.653   0.665   0.622   0.616   0.608   0.636   0.642   0.673   0.679   0.708   0.670   0.678   0.763   0.764   0.779   0.844   0.866   0.940   0.885   0.860   0.862   0.911   0.890   0.924   0.921   0.933   0.971   0.967   0.942   0.929   0.920   0.935   0.912   0.845   0.771   0.829   0.798   0.839   0.804   0.817   0.822   0.822   0.866   0.878   0.800   0.831   0.787   0.783   0.791   0.742   0.765   0.724   0.691   0.674   0.693   0.722   0.738   0.763   0.756   0.738   0.778   0.804   0.744   0.655   0.649   0.682   0.658   0.638   0.639   0.633   0.624   0.613   0.638   0.638   0.669   0.715   0.676   0.682   0.678   0.693   0.679   0.691   0.693   0.687   0.639   0.664   0.681   0.687   0.689   0.720   0.676   0.673   0.687   0.706   0.694   0.710   0.662   0.647   0.690   0.707   0.716   0.741   0.664   0.708   0.688   0.665   0.647   0.648   0.715   0.696   0.657   0.653   0.670   0.698   0.724   0.717   0.716   0.752   0.668   0.645   0.670   0.606   0.611   0.643   0.613   0.613   0.676
    19.60    0.720   0.726   0.764   0.748   0.772   0.742   0.708   0.655   0.628   0.689   0.696   0.722   0.666   0.639   0.678   0.667   0.673   0.663   0.671   0.688   0.707   0.674   0.674   0.707   0.686   0.664   0.684   0.665   0.721   0.753   0.757   0.761   0.768   0.760   0.734   0.709   0.739   0.762   0.710   0.735   0.723   0.740   0.728   0.715   0.749   0.664   0.688   0.687   0.661   0.700   0.757   0.737   0.743   0.703   0.644   0.709   0.692   0.680   0.700   0.697   0.654   0.645   0.651   0.667   0.694   0.651   0.644   0.642   0.587   0.608   0.645   0.665   0.656   0.683   0.695   0.726   0.659   0.739   0.767   0.788   0.798   0.835   0.869   0.898   0.847   0.816   0.871   0.873   0.889   0.948   0.889   0.888   0.901   0.870   0.884   0.864   0.876   0.880   0.872   0.848   0.801   0.775   0.801   0.795   0.789   0.771   0.819   0.845   0.845   0.816   0.840   0.762   0.763   0.774   0.779   0.696   0.704   0.730   0.651   0.685   0.672   0.741   0.724   0.710   0.750   0.754   0.792   0.787   0.722   0.693   0.666   0.642   0.616   0.623   0.605   0.584   0.615   0.633   0.661   0.613   0.684   0.675   0.685   0.649   0.696   0.733   0.733   0.675   0.700   0.717   0.721   0.702   0.676   0.673   0.708   0.702   0.659   0.662   0.649   0.689   0.691   0.698   0.659   0.722   0.739   0.695   0.722   0.702   0.678   0.701   0.700   0.701   0.683   0.674   0.660   0.652   0.648   0.652   0.656   0.667   0.688   0.678   0.686   0.726   0.640   0.651   0.664   0.649   0.636   0.625   0.627   0.665   0.658
    10.30    0.722   0.698   0.756   0.772   0.758   0.675   0.686   0.652   0.663   0.661   0.673   0.688   0.706   0.714   0.675   0.698   0.643   0.670   0.658   0.679   0.700   0.708   0.734   0.689   0.674   0.703   0.642   0.678   0.699   0.707   0.721   0.721   0.736   0.726   0.705   0.744   0.745   0.703   0.694   0.663   0.711   0.711   0.727   0.677   0.686   0.663   0.649   0.651   0.683   0.744   0.767   0.769   0.723   0.694   0.663   0.666   0.683   0.681   0.700   0.696   0.667   0.691   0.675   0.686   0.693   0.652   0.630   0.627   0.636   0.630   0.672   0.646   0.662   0.695   0.708   0.721   0.766   0.782   0.767   0.821   0.853   0.911   0.917   0.911   0.925   0.858   0.873   0.837   0.800   0.831   0.848   0.900   0.875   0.803   0.831   0.874   0.823   0.831   0.834   0.772   0.752   0.731   0.730   0.737   0.810   0.817   0.840   0.825   0.848   0.804   0.782   0.749   0.715   0.670   0.670   0.652   0.705   0.688   0.677   0.691   0.716   0.709   0.717   0.709   0.704   0.725   0.730   0.712   0.718   0.715   0.637   0.647   0.620   0.636   0.629   0.620   0.594   0.641   0.678   0.656   0.667   0.653   0.678   0.688   0.694   0.725   0.705   0.689   0.703   0.691   0.707   0.716   0.732   0.695   0.682   0.714   0.670   0.621   0.626   0.650   0.743   0.695   0.716   0.721   0.694   0.708   0.733   0.725   0.724   0.712   0.781   0.689   0.699   0.646   0.677   0.667   0.658   0.690   0.694   0.649   0.674   0.721   0.710   0.739   0.677   0.664   0.661   0.649   0.667   0.661   0.654   0.662   0.694
     1.00    0.716   0.748   0.739   0.763   0.761   0.678   0.689   0.664   0.684   0.704   0.692   0.676   0.672   0.686   0.629   0.677   0.647   0.664   0.682   0.668   0.740   0.651   0.688   0.749   0.696   0.706   0.687   0.704   0.714   0.725   0.694   0.753   0.730   0.750   0.738   0.735   0.712   0.720   0.666   0.712   0.726   0.720   0.692   0.684   0.706   0.659   0.650   0.720   0.747   0.802   0.748   0.739   0.742   0.684   0.653   0.648   0.674   0.649   0.646   0.680   0.672   0.669   0.715   0.747   0.694   0.603   0.627   0.581   0.617   0.609   0.622   0.670   0.675   0.655   0.674   0.716   0.764   0.782   0.799   0.834   0.882   0.872   0.863   0.898   0.876   0.899   0.821   0.808   0.806   0.782   0.763   0.834   0.809   0.803   0.784   0.770   0.790   0.829   0.803   0.815   0.744   0.732   0.745   0.758   0.738   0.752   0.787   0.802   0.763   0.760   0.737   0.646   0.659   0.648   0.621   0.603   0.672   0.696   0.702   0.691   0.690   0.712   0.699   0.749   0.752   0.741   0.769   0.711   0.729   0.694   0.664   0.641   0.614   0.631   0.647   0.659   0.619   0.594   0.621   0.628   0.620   0.593   0.630   0.701   0.746   0.712   0.702   0.692   0.658   0.658   0.702   0.694   0.688   0.726   0.695   0.670   0.638   0.639   0.677   0.701   0.748   0.762   0.742   0.683   0.697   0.736   0.715   0.718   0.730   0.734   0.719   0.707   0.668   0.673   0.677   0.693   0.660   0.660   0.669   0.702   0.678   0.712   0.719   0.692   0.694   0.676   0.625   0.664   0.674   0.677   0.691   0.705   0.733

   Height   Standard deviation at grid points for the v component:
   354.40    0.591   0.589   0.597   0.583   0.547   0.558   0.543   0.505   0.502   0.512   0.533   0.495   0.526   0.535   0.538   0.535   0.536   0.510   0.525   0.535   0.559   0.556   0.522   0.579   0.605   0.598   0.612   0.592   0.549   0.563   0.548   0.548   0.529   0.566   0.578   0.541   0.549   0.580   0.563   0.577   0.576   0.554   0.563   0.592   0.589   0.618   0.615   0.580   0.609   0.632   0.629   0.628   0.606   0.615   0.596   0.620   0.644   0.656   0.653   0.674   0.663   0.621   0.587   0.588   0.588   0.575   0.550   0.538   0.545   0.565   0.598   0.593   0.590   0.558   0.557   0.586   0.580   0.543   0.563   0.595   0.562   0.625   0.633   0.621   0.614   0.620   0.602   0.625   0.593   0.588   0.567   0.540   0.537   0.540   0.579   0.598   0.595   0.548   0.563   0.570   0.569   0.597   0.620   0.601   0.611   0.601   0.616   0.613   0.592   0.594   0.592   0.564   0.540   0.567   0.577   0.565   0.567   0.567   0.555   0.583   0.596   0.584   0.610   0.607   0.579   0.591   0.591   0.627   0.622   0.639   0.646   0.672   0.656   0.655   0.629   0.642   0.618   0.607   0.595   0.598   0.609   0.596   0.582   0.591   0.572   0.582   0.613   0.637   0.647   0.612   0.640   0.622   0.612   0.607   0.600   0.607   0.610   0.624   0.592   0.588   0.577   0.556   0.518   0.533   0.540   0.558   0.567   0.567   0.520   0.556   0.532   0.537   0.567   0.590   0.616   0.638   0.638   0.624   0.606   0.611   0.625   0.621   0.609   0.575   0.559   0.577   0.547   0.544   0.547   0.583   0.575   0.560   0.590
   345.10    0.585   0.589   0.596   0.589   0.582   0.586   0.556   0.527   0.516   0.547   0.551   0.553   0.548   0.535   0.547   0.552   0.551   0.515   0.533   0.534   0.563   0.589   0.567   0.575   0.617   0.622   0.621   0.627   0.571   0.539   0.553   0.533   0.537   0.528   0.523   0.539   0.565   0.552   0.543   0.543   0.573   0.636   0.618   0.627   0.650   0.662   0.632   0.605   0.642   0.632   0.642   0.630   0.607   0.603   0.641   0.631   0.635   0.651   0.627   0.644   0.614   0.620   0.607   0.587   0.578   0.551   0.530   0.529   0.533   0.582   0.599   0.573   0.595   0.588   0.557   0.564   0.574   0.563   0.582   0.604   0.571   0.576   0.619   0.614   0.625   0.622   0.593   0.597   0.568   0.616   0.566   0.568   0.564   0.542   0.571   0.583   0.608   0.615   0.545   0.541   0.566   0.590   0.609   0.626   0.653   0.636   0.643   0.636   0.609   0.596   0.569   0.553   0.547   0.549   0.573   0.559   0.551   0.557   0.566   0.576   0.561   0.589   0.615   0.615   0.594   0.616   0.613   0.612   0.635   0.678   0.670   0.667   0.652   0.621   0.604   0.608   0.608   0.634   0.608   0.619   0.618   0.635   0.598   0.578   0.560   0.555   0.592   0.645   0.614   0.630   0.610   0.635   0.613   0.594   0.613   0.581   0.626   0.598   0.599   0.601   0.618   0.571   0.549   0.532   0.565   0.574   0.546   0.549   0.564   0.559   0.553   0.603   0.578   0.576   0.604   0.622   0.633   0.614   0.609   0.618   0.600   0.608   0.628   0.584   0.548   0.568   0.559   0.588   0.549   0.580   0.585   0.574   0.576
   335.80    0.567   0.577   0.586   0.576   0.555   0.566   0.553   0.543   0.536   0.564   0.559   0.569   0.558   0.554   0.562   0.568   0.554   0.544   0.551   0.568   0.612   0.583   0.596   0.582   0.605   0.593   0.576   0.566   0.570   0.532   0.548   0.569   0.551   0.530   0.518   0.532   0.526   0.537   0.550   0.538   0.586   0.634   0.618   0.628   0.628   0.636   0.628   0.651   0.638   0.619   0.613   0.608   0.592   0.609   0.623   0.620   0.653   0.641   0.646   0.655   0.630   0.628   0.642   0.632   0.577   0.569   0.550   0.571   0.549   0.606   0.601   0.567   0.628   0.587   0.552   0.572   0.560   0.595   0.606   0.582   0.571   0.554   0.576   0.574   0.571   0.548   0.588   0.583   0.584   0.603   0.603   0.604   0.609   0.584   0.555   0.608   0.618   0.571   0.576   0.548   0.592   0.603   0.614   0.643   0.634   0.633   0.599   0.583   0.574   0.575   0.577   0.592   0.566   0.591   0.593   0.581   0.571   0.550   0.592   0.574   0.569   0.606   0.614   0.597   0.619   0.583   0.584   0.620   0.628   0.634   0.633   0.604   0.641   0.623   0.609   0.608   0.591   0.609   0.593   0.613   0.630   0.628   0.623   0.591   0.566   0.581   0.600   0.599   0.600   0.606   0.608   0.629   0.632   0.606   0.571   0.597   0.572   0.587   0.579   0.596   0.621   0.549   0.514   0.545   0.562   0.572   0.565   0.580   0.590   0.595   0.585   0.580   0.578   0.584   0.613   0.618   0.628   0.613   0.617   0.591   0.585   0.600   0.574   0.593   0.583   0.578   0.549   0.568   0.572   0.567   0.573   0.549   0.555
   326.50    0.597   0.586   0.589   0.566   0.577   0.541   0.530   0.522   0.513   0.546   0.562   0.558   0.567   0.584   0.565   0.584   0.547   0.524   0.550   0.576   0.580   0.615   0.605   0.598   0.606   0.632   0.609   0.579   0.566   0.532   0.535   0.557   0.547   0.562   0.546   0.552   0.537   0.538   0.527   0.532   0.571   0.601   0.600   0.624   0.614   0.630   0.646   0.639   0.608   0.617   0.572   0.577   0.592   0.613   0.608   0.625   0.635   0.640   0.634   0.655   0.644   0.646   0.639   0.623   0.606   0.590   0.557   0.542   0.562   0.582   0.585   0.589   0.609   0.595   0.561   0.570   0.569   0.585   0.593   0.598   0.551   0.546   0.546   0.557   0.579   0.578   0.556   0.585   0.618   0.614   0.617   0.579   0.600   0.580   0.564   0.561   0.592   0.552   0.554   0.538   0.576   0.600   0.623   0.612   0.595   0.583   0.552   0.553   0.547   0.568   0.588   0.611   0.571   0.605   0.613   0.601   0.575   0.572   0.556   0.579   0.584   0.580   0.594   0.606   0.624   0.595   0.605   0.639   0.616   0.603   0.602   0.578   0.590   0.637   0.602   0.599   0.603   0.593   0.579   0.610   0.578   0.605   0.585   0.598   0.565   0.577   0.598   0.622   0.649   0.640   0.623   0.615   0.627   0.620   0.590   0.569   0.580   0.567   0.569   0.588   0.599   0.584   0.544   0.534   0.540   0.546   0.558   0.583   0.578   0.605   0.621   0.599   0.614   0.626   0.601   0.607   0.634   0.628   0.631   0.567   0.579   0.572   0.589   0.596   0.590   0.561   0.536   0.534   0.544   0.574   0.573   0.551   0.552
[...]
   103.30    0.350   0.360   0.357   0.362   0.352   0.346   0.350   0.339   0.337   0.353   0.357   0.357   0.354   0.350   0.346   0.356   0.361   0.357   0.361   0.363   0.362   0.355   0.361   0.361   0.340   0.360   0.362   0.362   0.362   0.375   0.375   0.367   0.372   0.378   0.385   0.377   0.393   0.383   0.372   0.351   0.358   0.363   0.366   0.371   0.363   0.365   0.364   0.357   0.362   0.356   0.354   0.346   0.367   0.357   0.372   0.363   0.354   0.363   0.361   0.346   0.355   0.368   0.356   0.347   0.354   0.353   0.351   0.363   0.367   0.354   0.355   0.350   0.354   0.364   0.357   0.340   0.341   0.350   0.358   0.354   0.356   0.365   0.355   0.364   0.345   0.344   0.341   0.344   0.349   0.335   0.352   0.361   0.365   0.364   0.359   0.351   0.346   0.347   0.358   0.361   0.364   0.355   0.351   0.358   0.358   0.358   0.357   0.343   0.338   0.341   0.350   0.350   0.355   0.357   0.363   0.375   0.359   0.361   0.355   0.346   0.344   0.348   0.342   0.346   0.345   0.349   0.349   0.345   0.332   0.338   0.353   0.340   0.348   0.352   0.349   0.350   0.364   0.357   0.345   0.358   0.351   0.342   0.347   0.341   0.346   0.340   0.352   0.358   0.361   0.356   0.367   0.364   0.364   0.359   0.360   0.356   0.339   0.346   0.346   0.356   0.347   0.345   0.343   0.350   0.355   0.350   0.343   0.346   0.343   0.350   0.352   0.339   0.347   0.345   0.351   0.353   0.351   0.355   0.352   0.360   0.354   0.359   0.353   0.358   0.357   0.366   0.357   0.355   0.353   0.338   0.355   0.363   0.360
    94.00    0.334   0.339   0.362   0.362   0.346   0.353   0.345   0.341   0.342   0.356   0.346   0.355   0.354   0.362   0.345   0.338   0.348   0.346   0.345   0.358   0.362   0.359   0.368   0.357   0.365   0.372   0.362   0.356   0.367   0.371   0.373   0.370   0.373   0.372   0.380   0.374   0.381   0.387   0.370   0.357   0.368   0.365   0.357   0.374   0.374   0.382   0.375   0.375   0.358   0.361   0.357   0.359   0.368   0.359   0.353   0.352   0.360   0.362   0.356   0.345   0.352   0.351   0.360   0.351   0.354   0.356   0.349   0.358   0.365   0.352   0.354   0.365   0.361   0.350   0.345   0.350   0.344   0.352   0.365   0.359   0.369   0.378   0.373   0.357   0.357   0.341   0.337   0.346   0.358   0.339   0.347   0.354   0.354   0.366   0.356   0.343   0.341   0.347   0.360   0.357   0.354   0.363   0.373   0.360   0.366   0.357   0.358   0.335   0.352   0.349   0.342   0.342   0.347   0.360   0.367   0.357   0.367   0.363   0.343   0.347   0.334   0.330   0.346   0.346   0.349   0.349   0.356   0.341   0.335   0.342   0.335   0.338   0.343   0.345   0.346   0.342   0.352   0.347   0.365   0.362   0.358   0.347   0.340   0.359   0.363   0.347   0.353   0.348   0.355   0.366   0.365   0.354   0.357   0.354   0.351   0.349   0.349   0.352   0.360   0.357   0.358   0.348   0.356   0.349   0.348   0.344   0.341   0.334   0.342   0.337   0.340   0.338   0.356   0.341   0.339   0.353   0.343   0.344   0.362   0.346   0.346   0.358   0.356   0.354   0.349   0.350   0.355   0.353   0.343   0.353   0.364   0.372   0.358
    84.70    0.339   0.335   0.360   0.359   0.354   0.346   0.347   0.347   0.360   0.358   0.357   0.353   0.351   0.353   0.348   0.352   0.340   0.347   0.353   0.352   0.354   0.349   0.350   0.360   0.363   0.376   0.379   0.359   0.349   0.364   0.375   0.380   0.371   0.376   0.369   0.375   0.369   0.373   0.376   0.387   0.383   0.377   0.365   0.372   0.376   0.368   0.375   0.382   0.379   0.368   0.359   0.365   0.366   0.360   0.357   0.353   0.350   0.346   0.348   0.341   0.339   0.346   0.356   0.365   0.356   0.357   0.374   0.369   0.361   0.367   0.364   0.361   0.347   0.351   0.346   0.341   0.346   0.360   0.358   0.364   0.372   0.379   0.371   0.360   0.357   0.355   0.349   0.346   0.357   0.355   0.349   0.356   0.358   0.362   0.362   0.357   0.356   0.362   0.372   0.366   0.361   0.372   0.383   0.384   0.374   0.359   0.346   0.348   0.358   0.358   0.347   0.344   0.349   0.364   0.370   0.357   0.367   0.362   0.350   0.347   0.351   0.341   0.349   0.346   0.343   0.346   0.356   0.358   0.346   0.341   0.346   0.340   0.339   0.326   0.345   0.350   0.343   0.349   0.356   0.357   0.362   0.350   0.340   0.350   0.354   0.348   0.348   0.348   0.353   0.357   0.351   0.362   0.356   0.350   0.355   0.353   0.350   0.363   0.359   0.353   0.368   0.359   0.352   0.342   0.348   0.356   0.348   0.349   0.350   0.350   0.341   0.348   0.358   0.357   0.343   0.350   0.348   0.351   0.374   0.360   0.345   0.355   0.363   0.366   0.360   0.362   0.363   0.361   0.364   0.354   0.365   0.351   0.361
    75.40    0.339   0.345   0.346   0.348   0.344   0.348   0.337   0.343   0.361   0.361   0.346   0.341   0.347   0.343   0.344   0.349   0.348   0.364   0.362   0.352   0.347   0.350   0.336   0.355   0.364   0.362   0.365   0.364   0.372   0.366   0.370   0.375   0.370   0.381   0.369   0.377   0.373   0.369   0.380   0.371   0.371   0.372   0.371   0.363   0.366   0.366   0.371   0.368   0.369   0.355   0.358   0.365   0.358   0.344   0.344   0.358   0.366   0.351   0.351   0.354   0.364   0.350   0.353   0.366   0.365   0.366   0.362   0.361   0.360   0.374   0.367   0.336   0.341   0.338   0.353   0.346   0.341   0.355   0.355   0.368   0.364   0.377   0.364   0.357   0.372   0.351   0.346   0.338   0.337   0.354   0.361   0.362   0.368   0.362   0.362   0.366   0.355   0.358   0.373   0.379   0.371   0.369   0.384   0.374   0.364   0.352   0.364   0.355   0.363   0.365   0.363   0.366   0.362   0.376   0.373   0.370   0.361   0.354   0.348   0.352   0.364   0.361   0.357   0.341   0.348   0.354   0.356   0.344   0.346   0.340   0.358   0.346   0.337   0.337   0.344   0.337   0.342   0.344   0.359   0.360   0.357   0.352   0.334   0.340   0.337   0.346   0.347   0.348   0.348   0.349   0.357   0.350   0.358   0.349   0.355   0.349   0.355   0.351   0.353   0.353   0.354   0.364   0.347   0.347   0.353   0.356   0.354   0.354   0.351   0.340   0.343   0.348   0.347   0.350   0.350   0.346   0.354   0.351   0.353   0.353   0.352   0.357   0.359   0.358   0.347   0.360   0.354   0.351   0.360   0.371   0.371   0.367   0.364
    66.10    0.354   0.349   0.344   0.346   0.353   0.349   0.350   0.353   0.367   0.359   0.349   0.342   0.337   0.343   0.349   0.353   0.356   0.352   0.363   0.354   0.347   0.351   0.335   0.351   0.366   0.364   0.364   0.371   0.365   0.363   0.358   0.364   0.363   0.376   0.372   0.372   0.363   0.365   0.367   0.360   0.344   0.351   0.357   0.364   0.356   0.361   0.371   0.377   0.375   0.352   0.352   0.359   0.351   0.355   0.350   0.346   0.356   0.348   0.362   0.358   0.369   0.362   0.357   0.353   0.358   0.361   0.368   0.354   0.361   0.362   0.355   0.349   0.353   0.356   0.347   0.348   0.343   0.358   0.354   0.348   0.366   0.372   0.359   0.360   0.362   0.354   0.352   0.337   0.337   0.358   0.370   0.361   0.369   0.350   0.357   0.355   0.369   0.372   0.380   0.372   0.371   0.368   0.377   0.377   0.368   0.360   0.355   0.362   0.364   0.359   0.362   0.367   0.366   0.376   0.375   0.377   0.358   0.359   0.358   0.354   0.357   0.360   0.350   0.352   0.358   0.347   0.347   0.345   0.330   0.343   0.335   0.338   0.339   0.345   0.352   0.339   0.340   0.345   0.354   0.363   0.358   0.341   0.325   0.343   0.332   0.329   0.346   0.335   0.348   0.347   0.346   0.350   0.349   0.343   0.353   0.360   0.355   0.351   0.351   0.359   0.370   0.359   0.345   0.352   0.361   0.355   0.347   0.347   0.340   0.353   0.338   0.350   0.349   0.350   0.357   0.348   0.354   0.359   0.353   0.356   0.353   0.355   0.366   0.356   0.361   0.359   0.359   0.350   0.352   0.363   0.368   0.376   0.374
    56.80    0.341   0.339   0.348   0.356   0.352   0.352   0.352   0.345   0.344   0.344   0.340   0.338   0.332   0.331   0.339   0.349   0.358   0.351   0.352   0.359   0.352   0.343   0.342   0.358   0.361   0.357   0.377   0.376   0.368   0.353   0.358   0.349   0.362   0.370   0.366   0.370   0.374   0.365   0.368   0.357   0.341   0.343   0.351   0.344   0.361   0.367   0.364   0.373   0.367   0.358   0.356   0.357   0.350   0.352   0.343   0.346   0.351   0.363   0.365   0.366   0.356   0.361   0.353   0.354   0.344   0.360   0.356   0.350   0.356   0.352   0.354   0.348   0.354   0.353   0.350   0.339   0.351   0.355   0.350   0.358   0.363   0.360   0.362   0.359   0.368   0.367   0.352   0.346   0.333   0.337   0.354   0.353   0.361   0.364   0.368   0.366   0.380   0.380   0.374   0.368   0.359   0.352   0.367   0.369   0.365   0.358   0.356   0.357   0.368   0.354   0.356   0.354   0.369   0.359   0.365   0.360   0.347   0.358   0.364   0.372   0.357   0.345   0.348   0.347   0.361   0.358   0.339   0.350   0.338   0.341   0.345   0.336   0.338   0.343   0.349   0.348   0.346   0.350   0.356   0.361   0.352   0.333   0.333   0.336   0.336   0.336   0.340   0.341   0.340   0.351   0.334   0.349   0.357   0.347   0.356   0.354   0.360   0.360   0.355   0.356   0.359   0.352   0.351   0.354   0.358   0.364   0.353   0.347   0.347   0.359   0.359   0.349   0.352   0.357   0.360   0.351   0.354   0.353   0.346   0.351   0.356   0.351   0.352   0.358   0.354   0.347   0.351   0.361   0.354   0.362   0.373   0.378   0.373
    47.50    0.342   0.332   0.347   0.354   0.357   0.369   0.346   0.346   0.345   0.347   0.343   0.332   0.336   0.329   0.332   0.345   0.350   0.351   0.357   0.352   0.357   0.351   0.361   0.360   0.367   0.363   0.369   0.375   0.372   0.362   0.354   0.351   0.359   0.363   0.362   0.360   0.358   0.360   0.366   0.350   0.344   0.345   0.350   0.357   0.357   0.358   0.370   0.357   0.355   0.347   0.350   0.351   0.350   0.351   0.337   0.339   0.341   0.341   0.358   0.356   0.365   0.366   0.352   0.337   0.336   0.348   0.344   0.363   0.357   0.358   0.356   0.349   0.346   0.343   0.349   0.343   0.347   0.337   0.341   0.359   0.358   0.356   0.366   0.364   0.364   0.363   0.354   0.350   0.354   0.344   0.349   0.351   0.364   0.355   0.361   0.361   0.365   0.382   0.379   0.379   0.351   0.352   0.364   0.368   0.359   0.354   0.358   0.356   0.360   0.352   0.348   0.361   0.353   0.343   0.357   0.358   0.349   0.357   0.363   0.359   0.347   0.350   0.346   0.352   0.358   0.367   0.349   0.350   0.350   0.335   0.337   0.351   0.343   0.336   0.334   0.344   0.342   0.343   0.353   0.355   0.342   0.339   0.347   0.345   0.343   0.339   0.345   0.349   0.352   0.348   0.344   0.347   0.351   0.358   0.357   0.356   0.344   0.347   0.351   0.351   0.351   0.351   0.342   0.352   0.349   0.353   0.356   0.358   0.347   0.354   0.338   0.330   0.351   0.352   0.348   0.344   0.340   0.348   0.337   0.353   0.340   0.353   0.356   0.355   0.353   0.344   0.350   0.359   0.355   0.363   0.359   0.376   0.361
    38.20    0.351   0.344   0.348   0.353   0.357   0.361   0.345   0.349   0.361   0.348   0.338   0.344   0.340   0.347   0.348   0.338   0.346   0.362   0.358   0.370   0.367   0.363   0.354   0.360   0.366   0.354   0.354   0.361   0.369   0.358   0.361   0.359   0.356   0.364   0.352   0.351   0.354   0.340   0.348   0.347   0.343   0.350   0.357   0.352   0.361   0.365   0.372   0.367   0.343   0.357   0.349   0.342   0.353   0.350   0.346   0.341   0.343   0.358   0.360   0.356   0.361   0.352   0.341   0.339   0.354   0.348   0.352   0.363   0.372   0.369   0.364   0.356   0.336   0.341   0.343   0.351   0.347   0.353   0.343   0.356   0.341   0.347   0.353   0.361   0.369   0.364   0.354   0.356   0.360   0.352   0.346   0.359   0.370   0.360   0.363   0.355   0.363   0.364   0.374   0.362   0.342   0.358   0.360   0.367   0.351   0.343   0.348   0.362   0.363   0.367   0.366   0.365   0.358   0.355   0.368   0.366   0.339   0.351   0.359   0.362   0.356   0.354   0.342   0.348   0.350   0.351   0.344   0.345   0.344   0.343   0.335   0.344   0.345   0.340   0.348   0.340   0.349   0.329   0.341   0.338   0.343   0.346   0.350   0.358   0.358   0.350   0.344   0.347   0.350   0.340   0.348   0.348   0.352   0.357   0.370   0.359   0.344   0.364   0.360   0.350   0.349   0.358   0.358   0.350   0.357   0.358   0.345   0.353   0.358   0.358   0.346   0.332   0.344   0.344   0.341   0.341   0.339   0.341   0.338   0.350   0.350   0.352   0.357   0.355   0.348   0.339   0.350   0.359   0.361   0.370   0.358   0.374   0.362
    28.90    0.345   0.342   0.353   0.359   0.352   0.355   0.350   0.335   0.349   0.348   0.336   0.337   0.348   0.348   0.349   0.344   0.340   0.357   0.369   0.367   0.364   0.367   0.361   0.356   0.350   0.342   0.350   0.354   0.369   0.347   0.364   0.352   0.355   0.348   0.358   0.358   0.356   0.342   0.344   0.348   0.341   0.343   0.360   0.366   0.359   0.362   0.360   0.365   0.349   0.345   0.341   0.346   0.348   0.349   0.339   0.355   0.352   0.377   0.374   0.367   0.358   0.355   0.346   0.345   0.357   0.352   0.367   0.373   0.374   0.369   0.374   0.359   0.351   0.349   0.354   0.356   0.351   0.359   0.353   0.358   0.351   0.346   0.356   0.374   0.355   0.354   0.349   0.344   0.345   0.348   0.345   0.353   0.357   0.359   0.360   0.357   0.364   0.362   0.344   0.349   0.357   0.353   0.356   0.357   0.353   0.352   0.353   0.345   0.358   0.359   0.353   0.360   0.362   0.376   0.375   0.354   0.349   0.351   0.346   0.364   0.353   0.353   0.354   0.358   0.343   0.349   0.350   0.355   0.359   0.345   0.347   0.345   0.346   0.355   0.350   0.346   0.340   0.336   0.340   0.346   0.344   0.345   0.355   0.352   0.342   0.347   0.345   0.356   0.359   0.356   0.359   0.345   0.339   0.350   0.360   0.363   0.366   0.370   0.357   0.346   0.357   0.361   0.363   0.345   0.357   0.371   0.356   0.357   0.365   0.352   0.349   0.348   0.344   0.346   0.332   0.339   0.344   0.348   0.342   0.339   0.340   0.338   0.344   0.345   0.340   0.347   0.351   0.348   0.364   0.356   0.364   0.360   0.354
    19.60    0.349   0.363   0.356   0.355   0.350   0.332   0.345   0.341   0.330   0.337   0.334   0.350   0.343   0.357   0.350   0.348   0.351   0.342   0.355   0.359   0.361   0.361   0.369   0.355   0.354   0.349   0.337   0.349   0.368   0.363   0.348   0.363   0.355   0.355   0.356   0.343   0.352   0.349   0.346   0.344   0.347   0.351   0.359   0.360   0.351   0.359   0.363   0.358   0.355   0.351   0.357   0.355   0.346   0.355   0.351   0.353   0.358   0.365   0.360   0.360   0.362   0.364   0.350   0.351   0.348   0.350   0.355   0.373   0.366   0.361   0.368   0.355   0.341   0.338   0.349   0.345   0.368   0.366   0.352   0.344   0.349   0.359   0.357   0.370   0.356   0.348   0.354   0.358   0.357   0.358   0.343   0.348   0.362   0.358   0.362   0.353   0.364   0.362   0.350   0.358   0.352   0.363   0.346   0.350   0.350   0.349   0.353   0.349   0.353   0.349   0.362   0.363   0.356   0.370   0.357   0.362   0.350   0.355   0.355   0.365   0.335   0.351   0.346   0.353   0.348   0.352   0.348   0.355   0.347   0.333   0.344   0.360   0.342   0.335   0.344   0.348   0.345   0.340   0.343   0.344   0.340   0.347   0.346   0.332   0.343   0.347   0.343   0.344   0.355   0.359   0.348   0.346   0.346   0.353   0.353   0.354   0.369   0.370   0.368   0.370   0.353   0.350   0.363   0.358   0.356   0.367   0.367   0.366   0.370   0.361   0.355   0.340   0.351   0.355   0.348   0.356   0.337   0.336   0.343   0.333   0.330   0.333   0.329   0.343   0.332   0.346   0.349   0.353   0.358   0.366   0.352   0.356   0.348
    10.30    0.346   0.354   0.361   0.356   0.351   0.340   0.336   0.333   0.334   0.342   0.349   0.355   0.360   0.353   0.344   0.336   0.348   0.355   0.361   0.365   0.364   0.357   0.356   0.353   0.352   0.352   0.349   0.350   0.356   0.356   0.352   0.362   0.360   0.363   0.359   0.344   0.348   0.339   0.334   0.350   0.359   0.347   0.360   0.362   0.367   0.364   0.366   0.355   0.357   0.363   0.368   0.363   0.347   0.353   0.357   0.363   0.362   0.355   0.360   0.352   0.357   0.366   0.357   0.348   0.360   0.367   0.363   0.360   0.358   0.361   0.356   0.346   0.340   0.337   0.339   0.340   0.356   0.360   0.358   0.349   0.350   0.354   0.358   0.372   0.366   0.349   0.356   0.355   0.351   0.360   0.357   0.345   0.344   0.346   0.347   0.361   0.361   0.359   0.349   0.356   0.342   0.330   0.342   0.338   0.345   0.341   0.351   0.351   0.347   0.343   0.362   0.372   0.370   0.361   0.364   0.377   0.375   0.371   0.358   0.350   0.349   0.352   0.344   0.351   0.345   0.337   0.344   0.346   0.350   0.352   0.346   0.341   0.348   0.345   0.348   0.342   0.341   0.340   0.345   0.340   0.340   0.332   0.351   0.340   0.334   0.337   0.338   0.353   0.352   0.355   0.337   0.338   0.345   0.351   0.348   0.357   0.369   0.373   0.367   0.351   0.352   0.345   0.341   0.351   0.357   0.355   0.379   0.374   0.375   0.364   0.359   0.361   0.347   0.361   0.358   0.338   0.342   0.343   0.351   0.338   0.344   0.335   0.329   0.337   0.339   0.337   0.342   0.349   0.363   0.368   0.347   0.364   0.356
     1.00    0.356   0.354   0.355   0.348   0.353   0.338   0.333   0.331   0.334   0.347   0.341   0.349   0.350   0.350   0.346   0.347   0.347   0.342   0.362   0.349   0.355   0.351   0.344   0.352   0.358   0.360   0.355   0.354   0.359   0.362   0.362   0.368   0.366   0.362   0.349   0.355   0.355   0.344   0.345   0.348   0.357   0.351   0.356   0.366   0.362   0.372   0.370   0.370   0.370   0.371   0.365   0.360   0.346   0.341   0.350   0.350   0.358   0.350   0.354   0.355   0.358   0.351   0.350   0.348   0.356   0.365   0.368   0.363   0.365   0.364   0.356   0.350   0.334   0.340   0.345   0.347   0.343   0.359   0.359   0.352   0.356   0.346   0.355   0.363   0.358   0.351   0.340   0.353   0.372   0.362   0.357   0.356   0.361   0.342   0.350   0.357   0.366   0.360   0.347   0.351   0.335   0.342   0.340   0.339   0.341   0.351   0.350   0.352   0.345   0.349   0.351   0.360   0.373   0.359   0.368   0.371   0.370   0.360   0.365   0.353   0.358   0.350   0.349   0.347   0.337   0.330   0.337   0.337   0.342   0.341   0.345   0.343   0.333   0.345   0.351   0.351   0.344   0.350   0.348   0.337   0.343   0.340   0.342   0.339   0.347   0.334   0.340   0.342   0.348   0.348   0.348   0.344   0.340   0.346   0.356   0.354   0.359   0.364   0.361   0.359   0.344   0.343   0.340   0.334   0.350   0.360   0.363   0.362   0.358   0.367   0.373   0.374   0.360   0.363   0.351   0.337   0.343   0.351   0.354   0.345   0.347   0.347   0.332   0.336   0.336   0.337   0.340   0.339   0.349   0.359   0.354   0.354   0.365

   Mean standard deviation across all grid points:
      u component:    0.704 m/s
      v component:    0.578 m/s
      w component:    0.354 m/s


U-component (X) statistics from the interpolated hub point:

   Mean =   9.7063 m/s
   TI   =   8.2935 %


Processing complete.  1.91570E+05 CPU seconds used.
