
This summary file was generated by TurbSim (from OpenFAST-v3.5.3) on 20-Apr-2025 at 09:45:37.


Runtime Options:

**********  Random seed #1
    RANLUX  Type of random number generator
         F  Output binary HH turbulence parameters?
         F  Output formatted turbulence parameters?
         F  Output AeroDyn HH files?
         T  Output AeroDyn FF files?
         F  Output BLADED FF files?
         F  Output tower data?
         F  Output HAWC FF files?
         F  Output formatted FF files?
         T  Output coherent turbulence time step file?
 0 -  NONE  IEC turbulence models scaled to exact specified standard deviation


Turbine/Model Specifications:

        37  Vertical grid-point matrix dimension
        35  Horizontal grid-point matrix dimension
     0.250  Time step [seconds]
   900.000  Analysis time [seconds]
   900.000  Usable output time [seconds]
    89.350  Hub height [m]
   167.400  Grid height [m]
   158.100  Grid width [m]
     0.000  Vertical flow angle [degrees]
     0.000  Horizontal flow angle [degrees]


Meteorological Boundary Conditions:

    TIMESR  User-input time series spectral model
       N/A  IEC standard
       N/A  IEC turbulence characteristic
       N/A  IEC turbulence type
       N/A  IEC Extreme Turbulence Model (ETM) "c" parameter [m/s]
       PL   Wind profile type
    90.000  Reference height [m]
    10.000  Reference wind speed [m/s]
       N/A  Jet height [m]
     0.120  Power law exponent
     0.030  Surface roughness length [m]


Non-IEC Meteorological Boundary Conditions:

    45.000  Site latitude [degrees]
     0.050  Gradient Richardson number
     0.480  Friction or shear velocity [m/s]
       N/A  Mixing layer depth [m]
       N/A  Mean hub u'w' Reynolds stress
       N/A  Mean hub u'v' Reynolds stress
       N/A  Mean hub v'w' Reynolds stress


Spatial Coherence Models:

       IEC  u-component coherence model
       IEC  v-component coherence model
       IEC  w-component coherence model
(   12.000, 0.353E-03)  u-component coherence parameters
(   12.000, 0.353E-03)  v-component coherence parameters
(   12.000, 0.353E-03)  w-component coherence parameters
       N/A  Coherence exponent


Coherent Turbulence Scaling Parameters:

.\EventData
            Name of the path containing the coherent turbulence data files
       les  Type of coherent turbulence data files
     1.000  Disturbance scale (ratio of wave height to rotor diameter)
     0.500  Fractional location of tower centerline from right
     0.500  Fractional location of hub height from the bottom of the dataset
    30.000  Minimum start time for coherent structures [seconds]


Profiles from User-Defined Time-Series Input:

  Height   Wind Speed   Horizontal Angle   Vertical Angle
   (m)        (m/s)          (deg)              (deg)    
  ------   ----------   ----------------   --------------
   94.00      10.00          -0.63                0.00


You have requested that the following file(s) be generated:

   /kfs3/scratch/agupta/Projects/RL_Incubator/FinalRuns_Veer/Seed4/./FFSim_Seed4/Cond00_v10.0_PL0.12_TI2.5/Case2_wdirp04/Seed_7/TurbSim/HighT16.bts (AeroDyn/TurbSim full-field wind file)


Turbulence Simulation Scaling Parameter Summary:

   Turbulence model used                            =  User-input time series
   Gradient Richardson number                       =    0.050
   Monin-Obukhov (M-O) z/L parameter                =    0.067
   Monin-Obukhov (M-O) length scale                 = 1340.250 m
   Mean wind speed at hub height                    =    9.991 m/s

   Wind profile type                                =  Power law
   Power law exponent                               =    0.120
   Mean shear across rotor disk                     =    0.019 (m/s)/m
   Assumed rotor diameter                           =  158.100 m
   Surface roughness length                         =    0.030 m

   Nyquist frequency of turbulent wind field        =    2.000 Hz

   Number of time steps in the FFT                  =     3600
   Number of time steps output                      =     3600
   Number of points simulated                       =     1296


Mean Flow Angles:

   Vertical   =   0.0 degrees
   Horizontal =   0.0 degrees

Mean Wind Speed Profile:

   Height    Wind Speed   Horizontal Angle  Vertical Angle  U-comp (X)   V-comp (Y)   W-comp (Z)
     (m)        (m/s)         (degrees)       (degrees)       (m/s)        (m/s)        (m/s)   
   ------    ----------   ----------------  --------------  ----------   ----------   ----------
    168.4       10.78            0.00            0.00         10.78         0.00         0.00
    163.7       10.74            0.00            0.00         10.74         0.00         0.00
    159.1       10.71            0.00            0.00         10.71         0.00         0.00
    154.4       10.67            0.00            0.00         10.67         0.00         0.00
    149.8       10.63            0.00            0.00         10.63         0.00         0.00
    145.1       10.59            0.00            0.00         10.59         0.00         0.00
    140.5       10.55            0.00            0.00         10.55         0.00         0.00
    135.8       10.51            0.00            0.00         10.51         0.00         0.00
    131.2       10.46            0.00            0.00         10.46         0.00         0.00
    126.5       10.42            0.00            0.00         10.42         0.00         0.00
    121.9       10.37            0.00            0.00         10.37         0.00         0.00
    117.2       10.32            0.00            0.00         10.32         0.00         0.00
    112.6       10.27            0.00            0.00         10.27         0.00         0.00
    107.9       10.22            0.00            0.00         10.22         0.00         0.00
    103.3       10.17            0.00            0.00         10.17         0.00         0.00
     98.6       10.11            0.00            0.00         10.11         0.00         0.00
     94.0       10.05            0.00            0.00         10.05         0.00         0.00
     89.3        9.99            0.00            0.00          9.99         0.00         0.00
     84.7        9.93            0.00            0.00          9.93         0.00         0.00
     80.0        9.86            0.00            0.00          9.86         0.00         0.00
     75.4        9.79            0.00            0.00          9.79         0.00         0.00
     70.7        9.72            0.00            0.00          9.72         0.00         0.00
     66.1        9.64            0.00            0.00          9.64         0.00         0.00
     61.4        9.55            0.00            0.00          9.55         0.00         0.00
     56.8        9.46            0.00            0.00          9.46         0.00         0.00
     52.1        9.37            0.00            0.00          9.37         0.00         0.00
     47.5        9.26            0.00            0.00          9.26         0.00         0.00
     42.8        9.15            0.00            0.00          9.15         0.00         0.00
     38.2        9.02            0.00            0.00          9.02         0.00         0.00
     33.5        8.88            0.00            0.00          8.88         0.00         0.00
     28.9        8.73            0.00            0.00          8.73         0.00         0.00
     24.2        8.54            0.00            0.00          8.54         0.00         0.00
     19.6        8.33            0.00            0.00          8.33         0.00         0.00
     14.9        8.06            0.00            0.00          8.06         0.00         0.00
     10.3        7.71            0.00            0.00          7.71         0.00         0.00
      5.6        7.17            0.00            0.00          7.17         0.00         0.00
      1.0        5.83            0.00            0.00          5.83         0.00         0.00


Harvested Random Seeds after Generation of the Random Numbers:

     65026800 K 1
            0 K 2


Hub-Height Simulated Turbulence Statistical Summary:

   Type of Wind        Min (m/s)   Mean (m/s)    Max (m/s)  Sigma (m/s)       TI (%)
   ----------------    ---------   ----------    ---------  -----------       ------
   Longitudinal (u)         9.10         9.99        10.84        0.261        2.616
   Lateral (v)             -0.71         0.00         0.76        0.221        2.211
   Vertical (w)            -0.45        -0.00         0.44        0.122        1.216
   U component              9.10         9.99        10.84        0.261        2.616
   V component             -0.71         0.00         0.76        0.221        2.211
   W component             -0.45        -0.00         0.44        0.122        1.216
   Horizontal (U&V)         9.10         9.99        10.84        0.261        2.612
   Total                    9.10         9.99        10.84        0.261        2.611

                       Min Reynolds     Mean Reynolds    Max Reynolds    Correlation
   Product             Stress (m/s)^2   Stress (m/s)^2   Stress (m/s)^2  Coefficient
   ----------------    --------------   --------------   --------------  -----------
   u'w'                     -0.214             0.000             0.217         0.008
   u'v'                     -0.312            -0.002             0.291        -0.029
   v'w'                     -0.175             0.002             0.164         0.092


   Friction Velocity (Ustar)  =      0.016 m/s
   Maximum Instantaneous TKE  =      0.424 (m/s)^2
   Maximum Instantaneous CTKE =      0.158 (m/s)^2


Grid Point Variance Summary:

   Y-coord  -79.05  -74.40  -69.75  -65.10  -60.45  -55.80  -51.15  -46.50  -41.85  -37.20  -32.55  -27.90  -23.25  -18.60  -13.95   -9.30   -4.65    0.00    4.65    9.30   13.95   18.60   23.25   27.90   32.55   37.20   41.85   46.50   51.15   55.80   60.45   65.10   69.75   74.40   79.05

   Height   Standard deviation at grid points for the u component:
   168.40    0.255   0.256   0.239   0.223   0.241   0.253   0.241   0.252   0.258   0.251   0.238   0.253   0.245   0.211   0.209   0.200   0.203   0.196   0.190   0.225   0.223   0.214   0.225   0.229   0.234   0.200   0.196   0.228   0.222   0.248   0.258   0.245   0.262   0.258   0.247
   163.75    0.251   0.263   0.240   0.222   0.229   0.241   0.235   0.245   0.244   0.230   0.244   0.263   0.237   0.242   0.223   0.219   0.216   0.221   0.225   0.236   0.222   0.233   0.231   0.207   0.207   0.207   0.206   0.214   0.218   0.243   0.255   0.251   0.267   0.248   0.229
   159.10    0.236   0.233   0.236   0.238   0.238   0.239   0.255   0.252   0.243   0.240   0.234   0.254   0.248   0.242   0.234   0.216   0.232   0.242   0.247   0.245   0.231   0.233   0.237   0.227   0.209   0.217   0.220   0.226   0.226   0.242   0.239   0.255   0.265   0.272   0.265
   154.45    0.227   0.220   0.207   0.219   0.239   0.246   0.252   0.255   0.246   0.229   0.227   0.240   0.243   0.218   0.240   0.233   0.249   0.254   0.233   0.265   0.254   0.236   0.245   0.241   0.215   0.224   0.233   0.250   0.243   0.252   0.257   0.246   0.259   0.273   0.275
   149.80    0.222   0.216   0.218   0.212   0.225   0.242   0.226   0.241   0.240   0.232   0.239   0.259   0.247   0.225   0.229   0.251   0.261   0.261   0.247   0.263   0.261   0.244   0.252   0.241   0.230   0.224   0.246   0.250   0.245   0.248   0.252   0.254   0.256   0.274   0.252
   145.15    0.233   0.232   0.224   0.236   0.211   0.237   0.246   0.250   0.264   0.253   0.255   0.262   0.250   0.235   0.245   0.249   0.236   0.260   0.264   0.273   0.252   0.265   0.260   0.243   0.243   0.257   0.255   0.250   0.250   0.235   0.240   0.262   0.263   0.275   0.246
   140.50    0.222   0.225   0.218   0.219   0.213   0.221   0.233   0.241   0.244   0.232   0.261   0.279   0.266   0.242   0.231   0.235   0.252   0.258   0.258   0.271   0.261   0.251   0.237   0.241   0.253   0.274   0.274   0.258   0.252   0.276   0.263   0.266   0.263   0.265   0.259
   135.85    0.246   0.232   0.228   0.218   0.210   0.216   0.240   0.236   0.236   0.257   0.261   0.278   0.263   0.249   0.237   0.231   0.249   0.249   0.257   0.279   0.262   0.237   0.227   0.234   0.263   0.272   0.272   0.283   0.268   0.253   0.258   0.268   0.255   0.276   0.274
   131.20    0.248   0.223   0.237   0.229   0.216   0.236   0.234   0.252   0.247   0.240   0.245   0.265   0.268   0.251   0.269   0.274   0.264   0.249   0.263   0.272   0.262   0.237   0.248   0.246   0.272   0.274   0.270   0.275   0.260   0.243   0.263   0.253   0.251   0.257   0.262
   126.55    0.234   0.227   0.226   0.227   0.237   0.221   0.221   0.237   0.250   0.244   0.266   0.269   0.272   0.276   0.256   0.275   0.264   0.262   0.250   0.265   0.262   0.247   0.257   0.262   0.269   0.280   0.262   0.246   0.262   0.262   0.268   0.249   0.247   0.261   0.249
   121.90    0.220   0.247   0.227   0.223   0.235   0.228   0.219   0.232   0.248   0.251   0.267   0.252   0.248   0.254   0.241   0.257   0.255   0.235   0.232   0.256   0.242   0.243   0.261   0.257   0.272   0.274   0.268   0.259   0.258   0.273   0.264   0.267   0.258   0.255   0.265
   117.25    0.224   0.235   0.223   0.234   0.235   0.219   0.227   0.249   0.238   0.250   0.261   0.247   0.228   0.246   0.252   0.237   0.231   0.228   0.241   0.242   0.232   0.241   0.243   0.259   0.260   0.272   0.261   0.252   0.251   0.261   0.278   0.265   0.267   0.262   0.276
   112.60    0.204   0.218   0.237   0.217   0.230   0.230   0.228   0.253   0.256   0.274   0.267   0.243   0.229   0.239   0.227   0.235   0.208   0.214   0.219   0.222   0.237   0.256   0.263   0.251   0.266   0.265   0.264   0.261   0.258   0.250   0.254   0.261   0.276   0.256   0.259
   107.95    0.207   0.219   0.234   0.220   0.227   0.231   0.225   0.248   0.270   0.273   0.263   0.251   0.255   0.233   0.238   0.228   0.214   0.221   0.232   0.217   0.242   0.255   0.251   0.258   0.260   0.246   0.249   0.248   0.253   0.260   0.260   0.279   0.285   0.269   0.235
   103.30    0.227   0.218   0.232   0.236   0.232   0.242   0.235   0.233   0.257   0.272   0.268   0.247   0.229   0.226   0.212   0.226   0.231   0.228   0.247   0.237   0.244   0.262   0.264   0.264   0.246   0.240   0.241   0.246   0.269   0.265   0.253   0.260   0.267   0.269   0.244
    98.65    0.225   0.228   0.215   0.231   0.237   0.223   0.241   0.243   0.253   0.267   0.262   0.251   0.226   0.206   0.213   0.222   0.251   0.249   0.244   0.262   0.264   0.272   0.270   0.261   0.243   0.249   0.240   0.239   0.260   0.283   0.292   0.258   0.263   0.260   0.246
    94.00    0.248   0.233   0.245   0.232   0.238   0.240   0.243   0.235   0.262   0.272   0.252   0.247   0.223   0.221   0.223   0.228   0.264   0.263   0.250   0.263   0.273   0.269   0.262   0.253   0.250   0.243   0.241   0.246   0.265   0.276   0.297   0.270   0.267   0.263   0.250
    89.35    0.260   0.249   0.242   0.254   0.247   0.257   0.234   0.230   0.255   0.261   0.246   0.232   0.225   0.242   0.228   0.239   0.266   0.261   0.264   0.290   0.289   0.283   0.276   0.281   0.276   0.257   0.254   0.258   0.270   0.273   0.296   0.283   0.287   0.280   0.274
    84.70    0.271   0.265   0.265   0.254   0.246   0.249   0.268   0.256   0.245   0.250   0.260   0.250   0.243   0.231   0.252   0.270   0.276   0.257   0.283   0.269   0.291   0.309   0.301   0.270   0.284   0.278   0.258   0.260   0.274   0.270   0.275   0.298   0.297   0.293   0.294
    80.05    0.264   0.257   0.266   0.270   0.283   0.275   0.283   0.260   0.250   0.260   0.251   0.257   0.248   0.239   0.264   0.258   0.261   0.266   0.287   0.294   0.294   0.301   0.294   0.290   0.284   0.268   0.274   0.287   0.271   0.271   0.291   0.302   0.311   0.304   0.307
    75.40    0.281   0.263   0.266   0.284   0.300   0.308   0.286   0.253   0.252   0.257   0.261   0.249   0.259   0.262   0.269   0.291   0.274   0.263   0.279   0.301   0.306   0.314   0.306   0.285   0.278   0.277   0.276   0.288   0.299   0.282   0.297   0.296   0.305   0.310   0.324
    70.75    0.287   0.288   0.280   0.285   0.300   0.297   0.277   0.255   0.258   0.247   0.262   0.260   0.258   0.253   0.266   0.270   0.276   0.292   0.302   0.297   0.304   0.301   0.293   0.279   0.278   0.298   0.310   0.282   0.309   0.294   0.286   0.294   0.301   0.293   0.312
    66.10    0.283   0.286   0.301   0.295   0.276   0.291   0.267   0.271   0.262   0.256   0.250   0.257   0.273   0.266   0.257   0.286   0.291   0.308   0.304   0.281   0.307   0.294   0.298   0.293   0.286   0.295   0.299   0.295   0.301   0.299   0.285   0.292   0.290   0.312   0.317
    61.45    0.260   0.281   0.295   0.274   0.286   0.284   0.280   0.292   0.270   0.263   0.264   0.276   0.277   0.291   0.283   0.277   0.281   0.304   0.303   0.317   0.302   0.291   0.284   0.286   0.284   0.278   0.273   0.292   0.301   0.286   0.291   0.301   0.300   0.317   0.309
    56.80    0.260   0.266   0.276   0.274   0.285   0.288   0.263   0.276   0.274   0.280   0.259   0.252   0.262   0.280   0.290   0.285   0.297   0.302   0.313   0.322   0.299   0.309   0.284   0.290   0.264   0.273   0.292   0.302   0.305   0.301   0.293   0.317   0.320   0.321   0.311
    52.15    0.244   0.244   0.243   0.271   0.289   0.279   0.262   0.263   0.254   0.246   0.262   0.244   0.267   0.251   0.277   0.295   0.303   0.296   0.315   0.307   0.315   0.311   0.300   0.276   0.283   0.289   0.296   0.294   0.293   0.291   0.318   0.315   0.343   0.327   0.331
    47.50    0.249   0.228   0.250   0.267   0.275   0.280   0.275   0.272   0.282   0.275   0.282   0.262   0.261   0.265   0.281   0.285   0.277   0.296   0.291   0.320   0.322   0.306   0.309   0.305   0.305   0.293   0.292   0.292   0.291   0.296   0.316   0.319   0.323   0.341   0.352
    42.85    0.238   0.238   0.255   0.265   0.268   0.280   0.278   0.296   0.298   0.313   0.304   0.273   0.256   0.279   0.281   0.288   0.272   0.294   0.288   0.304   0.312   0.295   0.312   0.309   0.302   0.294   0.272   0.288   0.287   0.284   0.296   0.290   0.294   0.345   0.339
    38.20    0.232   0.240   0.261   0.243   0.253   0.255   0.271   0.308   0.332   0.308   0.299   0.269   0.247   0.272   0.296   0.312   0.293   0.288   0.304   0.303   0.292   0.297   0.309   0.301   0.308   0.271   0.284   0.273   0.255   0.270   0.276   0.277   0.285   0.338   0.346
    33.55    0.215   0.231   0.251   0.245   0.248   0.284   0.300   0.318   0.325   0.328   0.292   0.270   0.260   0.268   0.300   0.300   0.307   0.290   0.306   0.282   0.285   0.288   0.293   0.290   0.265   0.279   0.284   0.271   0.253   0.269   0.245   0.253   0.275   0.317   0.352
    28.90    0.210   0.234   0.257   0.251   0.264   0.299   0.301   0.309   0.319   0.330   0.312   0.283   0.276   0.300   0.312   0.330   0.314   0.298   0.305   0.307   0.288   0.271   0.264   0.291   0.269   0.274   0.269   0.276   0.270   0.277   0.260   0.247   0.277   0.304   0.339
    24.25    0.225   0.243   0.250   0.256   0.270   0.275   0.306   0.322   0.334   0.317   0.319   0.284   0.284   0.288   0.290   0.317   0.317   0.330   0.305   0.299   0.307   0.276   0.267   0.282   0.281   0.275   0.275   0.271   0.271   0.260   0.265   0.275   0.282   0.315   0.327
    19.60    0.246   0.240   0.250   0.263   0.265   0.287   0.302   0.308   0.300   0.310   0.313   0.292   0.300   0.313   0.291   0.318   0.329   0.327   0.317   0.325   0.323   0.294   0.274   0.272   0.275   0.291   0.289   0.274   0.282   0.284   0.285   0.309   0.306   0.328   0.351
    14.95    0.227   0.240   0.254   0.287   0.297   0.285   0.280   0.278   0.304   0.300   0.302   0.300   0.308   0.313   0.309   0.318   0.316   0.312   0.324   0.334   0.311   0.314   0.288   0.275   0.292   0.300   0.286   0.272   0.281   0.302   0.305   0.323   0.343   0.352   0.337
    10.30    0.222   0.230   0.253   0.269   0.286   0.277   0.283   0.277   0.294   0.314   0.310   0.321   0.312   0.318   0.329   0.328   0.330   0.306   0.318   0.319   0.305   0.297   0.306   0.287   0.269   0.285   0.288   0.293   0.296   0.313   0.333   0.344   0.342   0.357   0.343
     5.65    0.244   0.232   0.242   0.278   0.301   0.299   0.278   0.296   0.283   0.301   0.308   0.318   0.313   0.330   0.318   0.309   0.327   0.312   0.310   0.299   0.295   0.287   0.299   0.284   0.292   0.286   0.313   0.311   0.301   0.310   0.350   0.338   0.346   0.369   0.356
     1.00    0.253   0.241   0.259   0.283   0.279   0.301   0.290   0.279   0.291   0.308   0.297   0.303   0.294   0.304   0.321   0.324   0.336   0.315   0.291   0.307   0.318   0.305   0.281   0.296   0.302   0.301   0.322   0.333   0.315   0.335   0.349   0.359   0.371   0.364   0.354

   Height   Standard deviation at grid points for the v component:
   168.40    0.204   0.205   0.206   0.216   0.221   0.221   0.215   0.222   0.220   0.216   0.234   0.226   0.228   0.232   0.244   0.224   0.225   0.233   0.226   0.219   0.214   0.211   0.208   0.211   0.231   0.237   0.265   0.282   0.279   0.296   0.291   0.285   0.282   0.285   0.259
   163.75    0.199   0.192   0.198   0.217   0.214   0.214   0.218   0.226   0.230   0.225   0.239   0.232   0.243   0.236   0.238   0.244   0.235   0.228   0.231   0.236   0.215   0.209   0.219   0.216   0.244   0.252   0.245   0.274   0.296   0.304   0.281   0.282   0.294   0.290   0.281
   159.10    0.196   0.202   0.190   0.203   0.210   0.200   0.224   0.236   0.223   0.214   0.228   0.243   0.242   0.220   0.225   0.239   0.240   0.229   0.240   0.232   0.222   0.215   0.224   0.229   0.242   0.259   0.261   0.269   0.285   0.298   0.284   0.285   0.308   0.306   0.295
   154.45    0.198   0.189   0.203   0.210   0.201   0.206   0.217   0.221   0.218   0.222   0.209   0.231   0.234   0.226   0.217   0.231   0.238   0.221   0.226   0.214   0.222   0.225   0.220   0.236   0.250   0.269   0.262   0.274   0.288   0.288   0.288   0.292   0.308   0.284   0.307
   149.80    0.199   0.203   0.202   0.200   0.214   0.218   0.219   0.219   0.222   0.222   0.211   0.220   0.232   0.237   0.224   0.235   0.224   0.222   0.221   0.209   0.229   0.229   0.226   0.248   0.265   0.276   0.261   0.262   0.265   0.293   0.294   0.293   0.314   0.302   0.302
   145.15    0.194   0.204   0.213   0.210   0.207   0.212   0.200   0.202   0.200   0.211   0.219   0.221   0.223   0.225   0.232   0.221   0.232   0.219   0.216   0.215   0.219   0.213   0.237   0.261   0.252   0.268   0.270   0.257   0.254   0.285   0.294   0.301   0.305   0.310   0.286
   140.50    0.190   0.202   0.208   0.194   0.200   0.207   0.202   0.196   0.194   0.204   0.220   0.228   0.228   0.226   0.218   0.219   0.225   0.225   0.210   0.205   0.226   0.221   0.237   0.249   0.257   0.281   0.272   0.266   0.278   0.287   0.296   0.303   0.293   0.285   0.284
   135.85    0.197   0.217   0.202   0.191   0.191   0.186   0.203   0.200   0.200   0.198   0.213   0.220   0.225   0.227   0.218   0.217   0.222   0.214   0.225   0.215   0.232   0.232   0.246   0.240   0.253   0.267   0.287   0.282   0.282   0.283   0.293   0.294   0.272   0.285   0.281
   131.20    0.201   0.214   0.197   0.201   0.204   0.201   0.198   0.204   0.189   0.201   0.203   0.210   0.227   0.236   0.225   0.234   0.227   0.223   0.221   0.227   0.236   0.229   0.238   0.236   0.248   0.271   0.268   0.278   0.291   0.287   0.292   0.274   0.279   0.275   0.272
   126.55    0.201   0.215   0.211   0.202   0.209   0.203   0.199   0.206   0.182   0.196   0.201   0.211   0.215   0.225   0.220   0.234   0.237   0.228   0.222   0.224   0.228   0.220   0.228   0.230   0.252   0.257   0.265   0.264   0.268   0.282   0.286   0.268   0.267   0.276   0.272
   121.90    0.194   0.204   0.199   0.191   0.199   0.200   0.209   0.186   0.190   0.197   0.208   0.211   0.199   0.209   0.215   0.217   0.223   0.237   0.221   0.209   0.226   0.227   0.217   0.216   0.234   0.255   0.260   0.260   0.256   0.263   0.266   0.275   0.267   0.259   0.275
   117.25    0.196   0.199   0.196   0.193   0.189   0.193   0.199   0.193   0.191   0.198   0.212   0.219   0.207   0.202   0.203   0.202   0.219   0.229   0.214   0.207   0.223   0.228   0.221   0.224   0.242   0.247   0.264   0.282   0.268   0.280   0.263   0.255   0.251   0.258   0.260
   112.60    0.204   0.191   0.193   0.189   0.198   0.212   0.203   0.203   0.197   0.199   0.215   0.213   0.212   0.209   0.217   0.199   0.201   0.216   0.215   0.209   0.213   0.221   0.215   0.234   0.252   0.263   0.274   0.283   0.281   0.278   0.256   0.244   0.240   0.254   0.239
   107.95    0.196   0.189   0.202   0.192   0.190   0.207   0.198   0.194   0.195   0.220   0.223   0.230   0.225   0.216   0.224   0.218   0.208   0.213   0.223   0.227   0.217   0.228   0.224   0.226   0.244   0.242   0.258   0.259   0.274   0.262   0.240   0.246   0.240   0.244   0.247
   103.30    0.195   0.188   0.196   0.198   0.190   0.199   0.211   0.204   0.206   0.220   0.228   0.212   0.224   0.219   0.212   0.211   0.201   0.214   0.222   0.222   0.227   0.238   0.214   0.211   0.232   0.242   0.253   0.264   0.264   0.262   0.242   0.241   0.253   0.252   0.244
    98.65    0.181   0.189   0.194   0.199   0.189   0.201   0.201   0.206   0.208   0.228   0.217   0.228   0.219   0.222   0.228   0.226   0.199   0.213   0.209   0.210   0.216   0.220   0.231   0.220   0.225   0.236   0.251   0.251   0.257   0.253   0.230   0.247   0.266   0.267   0.259
    94.00    0.181   0.181   0.195   0.188   0.185   0.204   0.205   0.208   0.208   0.225   0.221   0.230   0.229   0.229   0.224   0.213   0.218   0.207   0.208   0.221   0.223   0.229   0.234   0.220   0.224   0.230   0.229   0.242   0.251   0.247   0.232   0.230   0.249   0.251   0.244
    89.35    0.179   0.178   0.178   0.186   0.189   0.200   0.210   0.212   0.209   0.219   0.216   0.231   0.225   0.231   0.220   0.220   0.230   0.221   0.215   0.225   0.213   0.231   0.228   0.224   0.235   0.226   0.226   0.239   0.244   0.244   0.231   0.238   0.247   0.244   0.233
    84.70    0.190   0.179   0.185   0.183   0.199   0.212   0.221   0.221   0.223   0.214   0.225   0.226   0.231   0.236   0.225   0.219   0.206   0.202   0.222   0.231   0.230   0.240   0.233   0.217   0.229   0.230   0.236   0.242   0.233   0.239   0.228   0.238   0.228   0.247   0.231
    80.05    0.190   0.183   0.194   0.188   0.192   0.198   0.215   0.198   0.201   0.212   0.216   0.222   0.233   0.232   0.212   0.207   0.212   0.204   0.217   0.231   0.219   0.242   0.235   0.225   0.226   0.222   0.220   0.221   0.224   0.227   0.242   0.237   0.244   0.248   0.234
    75.40    0.195   0.190   0.184   0.200   0.197   0.192   0.207   0.204   0.208   0.200   0.222   0.225   0.230   0.229   0.206   0.195   0.199   0.212   0.211   0.218   0.218   0.234   0.243   0.246   0.224   0.213   0.219   0.212   0.203   0.217   0.231   0.241   0.263   0.266   0.247
    70.75    0.190   0.190   0.200   0.195   0.193   0.198   0.202   0.212   0.208   0.217   0.217   0.221   0.210   0.213   0.219   0.201   0.187   0.193   0.213   0.207   0.205   0.210   0.229   0.236   0.250   0.229   0.220   0.222   0.215   0.241   0.244   0.239   0.258   0.253   0.243
    66.10    0.190   0.194   0.191   0.187   0.197   0.203   0.200   0.209   0.202   0.209   0.219   0.210   0.196   0.211   0.203   0.202   0.188   0.195   0.206   0.205   0.216   0.217   0.221   0.226   0.232   0.236   0.232   0.227   0.234   0.237   0.248   0.248   0.238   0.243   0.223
    61.45    0.207   0.189   0.183   0.180   0.176   0.188   0.189   0.193   0.198   0.189   0.201   0.204   0.192   0.198   0.207   0.198   0.205   0.197   0.220   0.229   0.237   0.218   0.217   0.211   0.224   0.245   0.239   0.239   0.226   0.220   0.230   0.236   0.230   0.220   0.232
    56.80    0.202   0.199   0.184   0.177   0.185   0.194   0.187   0.192   0.201   0.200   0.193   0.187   0.194   0.193   0.198   0.210   0.208   0.206   0.228   0.233   0.234   0.215   0.205   0.226   0.235   0.231   0.244   0.230   0.219   0.229   0.246   0.233   0.218   0.220   0.225
    52.15    0.193   0.203   0.185   0.175   0.182   0.197   0.195   0.203   0.200   0.194   0.182   0.203   0.191   0.211   0.204   0.225   0.217   0.212   0.226   0.230   0.221   0.220   0.211   0.232   0.230   0.244   0.240   0.242   0.237   0.245   0.246   0.239   0.237   0.234   0.229
    47.50    0.209   0.216   0.190   0.187   0.182   0.192   0.205   0.207   0.188   0.182   0.180   0.187   0.207   0.200   0.220   0.222   0.209   0.202   0.223   0.232   0.217   0.230   0.226   0.223   0.245   0.244   0.249   0.236   0.245   0.246   0.249   0.249   0.242   0.229   0.234
    42.85    0.212   0.205   0.196   0.191   0.179   0.200   0.205   0.190   0.188   0.175   0.182   0.191   0.209   0.211   0.210   0.219   0.216   0.225   0.221   0.229   0.218   0.221   0.223   0.236   0.249   0.240   0.241   0.251   0.255   0.249   0.258   0.245   0.236   0.241   0.250
    38.20    0.208   0.206   0.190   0.188   0.188   0.195   0.196   0.201   0.178   0.185   0.190   0.190   0.197   0.199   0.204   0.207   0.219   0.219   0.210   0.216   0.210   0.236   0.232   0.224   0.246   0.244   0.259   0.257   0.256   0.246   0.253   0.252   0.241   0.246   0.239
    33.55    0.201   0.198   0.198   0.194   0.192   0.195   0.203   0.202   0.189   0.190   0.182   0.190   0.192   0.199   0.205   0.201   0.203   0.216   0.212   0.205   0.218   0.230   0.228   0.228   0.224   0.243   0.256   0.263   0.264   0.248   0.259   0.252   0.246   0.234   0.238
    28.90    0.194   0.205   0.201   0.200   0.198   0.200   0.192   0.199   0.186   0.187   0.180   0.194   0.182   0.207   0.210   0.198   0.187   0.205   0.203   0.211   0.198   0.216   0.221   0.233   0.225   0.241   0.242   0.253   0.257   0.258   0.255   0.254   0.249   0.254   0.260
    24.25    0.217   0.215   0.213   0.208   0.204   0.197   0.186   0.193   0.193   0.188   0.188   0.197   0.196   0.209   0.208   0.211   0.200   0.209   0.190   0.202   0.198   0.211   0.219   0.229   0.220   0.227   0.242   0.249   0.268   0.258   0.268   0.254   0.257   0.250   0.274
    19.60    0.223   0.232   0.220   0.216   0.210   0.203   0.207   0.196   0.191   0.194   0.201   0.201   0.215   0.213   0.218   0.211   0.205   0.205   0.193   0.192   0.193   0.202   0.219   0.225   0.240   0.235   0.251   0.257   0.270   0.271   0.268   0.261   0.252   0.262   0.269
    14.95    0.230   0.238   0.216   0.220   0.210   0.204   0.204   0.204   0.216   0.202   0.208   0.216   0.225   0.220   0.219   0.219   0.218   0.213   0.212   0.201   0.215   0.202   0.219   0.237   0.237   0.238   0.256   0.253   0.276   0.282   0.276   0.274   0.278   0.262   0.258
    10.30    0.225   0.230   0.212   0.207   0.210   0.213   0.213   0.216   0.233   0.211   0.214   0.209   0.231   0.237   0.237   0.224   0.238   0.236   0.230   0.224   0.225   0.242   0.233   0.232   0.247   0.244   0.243   0.247   0.262   0.275   0.267   0.286   0.265   0.279   0.272
     5.65    0.236   0.229   0.222   0.206   0.199   0.223   0.227   0.237   0.234   0.233   0.218   0.244   0.242   0.257   0.251   0.236   0.248   0.244   0.234   0.231   0.241   0.260   0.247   0.243   0.239   0.261   0.246   0.240   0.259   0.279   0.263   0.281   0.266   0.273   0.281
     1.00    0.227   0.227   0.220   0.223   0.209   0.223   0.227   0.240   0.241   0.233   0.225   0.237   0.247   0.263   0.253   0.248   0.255   0.243   0.241   0.242   0.261   0.265   0.252   0.245   0.254   0.255   0.260   0.256   0.257   0.272   0.292   0.291   0.274   0.267   0.266

   Height   Standard deviation at grid points for the w component:
   168.40    0.132   0.129   0.131   0.128   0.127   0.120   0.120   0.118   0.119   0.119   0.124   0.122   0.121   0.120   0.118   0.120   0.114   0.119   0.116   0.118   0.116   0.118   0.119   0.119   0.117   0.120   0.118   0.119   0.122   0.124   0.125   0.127   0.125   0.126   0.124
   163.75    0.130   0.131   0.128   0.127   0.126   0.122   0.120   0.119   0.121   0.119   0.120   0.117   0.117   0.120   0.117   0.114   0.117   0.114   0.115   0.119   0.118   0.119   0.124   0.124   0.120   0.120   0.115   0.121   0.123   0.122   0.123   0.124   0.126   0.129   0.122
   159.10    0.127   0.127   0.127   0.128   0.127   0.124   0.123   0.120   0.120   0.119   0.115   0.113   0.120   0.116   0.119   0.115   0.114   0.115   0.117   0.118   0.118   0.118   0.120   0.123   0.124   0.121   0.120   0.127   0.124   0.122   0.120   0.127   0.129   0.125   0.122
   154.45    0.128   0.128   0.123   0.126   0.126   0.127   0.123   0.116   0.119   0.120   0.115   0.113   0.116   0.116   0.120   0.117   0.113   0.117   0.121   0.119   0.116   0.121   0.124   0.123   0.124   0.124   0.127   0.122   0.127   0.127   0.125   0.125   0.128   0.126   0.124
   149.80    0.125   0.131   0.131   0.124   0.125   0.123   0.125   0.121   0.120   0.118   0.116   0.112   0.114   0.114   0.118   0.116   0.119   0.118   0.123   0.125   0.118   0.118   0.121   0.124   0.126   0.127   0.125   0.127   0.128   0.124   0.126   0.124   0.124   0.122   0.126
   145.15    0.128   0.127   0.130   0.128   0.128   0.130   0.126   0.125   0.119   0.120   0.120   0.116   0.122   0.122   0.121   0.119   0.121   0.122   0.126   0.123   0.121   0.119   0.119   0.121   0.122   0.123   0.124   0.119   0.121   0.120   0.125   0.123   0.129   0.126   0.126
   140.50    0.124   0.126   0.123   0.123   0.124   0.124   0.124   0.123   0.120   0.120   0.117   0.120   0.123   0.123   0.127   0.120   0.121   0.122   0.125   0.125   0.125   0.123   0.120   0.123   0.123   0.124   0.124   0.117   0.119   0.123   0.124   0.126   0.122   0.126   0.129
   135.85    0.119   0.121   0.121   0.120   0.118   0.122   0.121   0.120   0.120   0.122   0.124   0.126   0.123   0.120   0.123   0.124   0.119   0.122   0.120   0.121   0.125   0.124   0.122   0.123   0.119   0.119   0.119   0.118   0.121   0.123   0.124   0.127   0.129   0.122   0.120
   131.20    0.122   0.120   0.118   0.121   0.119   0.121   0.119   0.117   0.117   0.121   0.122   0.125   0.125   0.122   0.122   0.124   0.120   0.121   0.124   0.124   0.123   0.122   0.120   0.118   0.118   0.117   0.112   0.113   0.119   0.126   0.127   0.128   0.126   0.124   0.121
   126.55    0.123   0.125   0.124   0.121   0.120   0.121   0.116   0.117   0.123   0.125   0.128   0.130   0.124   0.128   0.129   0.122   0.121   0.120   0.117   0.120   0.119   0.121   0.119   0.119   0.116   0.118   0.116   0.116   0.120   0.126   0.127   0.129   0.129   0.124   0.122
   121.90    0.127   0.126   0.131   0.127   0.127   0.119   0.122   0.122   0.126   0.129   0.127   0.128   0.136   0.125   0.126   0.124   0.120   0.116   0.113   0.115   0.120   0.119   0.121   0.117   0.119   0.117   0.119   0.122   0.123   0.124   0.126   0.127   0.129   0.123   0.121
   117.25    0.129   0.124   0.125   0.126   0.126   0.121   0.120   0.120   0.126   0.128   0.128   0.126   0.128   0.125   0.124   0.122   0.116   0.112   0.114   0.118   0.122   0.120   0.119   0.120   0.115   0.119   0.120   0.118   0.120   0.122   0.125   0.126   0.122   0.118   0.124
   112.60    0.124   0.122   0.122   0.122   0.123   0.126   0.119   0.120   0.121   0.124   0.122   0.124   0.127   0.126   0.121   0.121   0.114   0.114   0.115   0.115   0.121   0.117   0.122   0.122   0.118   0.120   0.121   0.118   0.118   0.119   0.117   0.121   0.123   0.121   0.123
   107.95    0.126   0.123   0.123   0.122   0.121   0.125   0.124   0.122   0.121   0.120   0.126   0.125   0.122   0.119   0.117   0.118   0.115   0.113   0.115   0.118   0.117   0.116   0.120   0.118   0.119   0.120   0.117   0.115   0.120   0.122   0.118   0.118   0.119   0.115   0.121
   103.30    0.124   0.124   0.122   0.121   0.119   0.120   0.121   0.123   0.123   0.122   0.123   0.121   0.121   0.116   0.118   0.123   0.115   0.112   0.115   0.119   0.117   0.113   0.113   0.115   0.114   0.116   0.114   0.119   0.117   0.121   0.120   0.115   0.119   0.115   0.121
    98.65    0.119   0.118   0.115   0.120   0.120   0.122   0.122   0.122   0.124   0.124   0.122   0.121   0.114   0.115   0.123   0.121   0.119   0.116   0.120   0.119   0.119   0.114   0.112   0.112   0.115   0.117   0.115   0.115   0.117   0.122   0.119   0.118   0.121   0.117   0.124
    94.00    0.118   0.124   0.119   0.118   0.121   0.121   0.119   0.120   0.117   0.123   0.124   0.123   0.119   0.116   0.117   0.116   0.117   0.116   0.118   0.119   0.124   0.118   0.112   0.114   0.121   0.118   0.123   0.115   0.116   0.116   0.114   0.118   0.116   0.120   0.118
    89.35    0.118   0.122   0.123   0.120   0.118   0.119   0.124   0.118   0.119   0.122   0.123   0.119   0.117   0.119   0.116   0.115   0.120   0.122   0.117   0.123   0.123   0.116   0.116   0.118   0.121   0.119   0.118   0.116   0.116   0.114   0.115   0.118   0.121   0.118   0.118
    84.70    0.118   0.121   0.122   0.119   0.120   0.125   0.128   0.121   0.123   0.122   0.123   0.120   0.124   0.121   0.116   0.120   0.123   0.122   0.119   0.118   0.121   0.121   0.120   0.115   0.116   0.116   0.116   0.113   0.111   0.110   0.116   0.117   0.120   0.114   0.119
    80.05    0.124   0.121   0.119   0.123   0.117   0.120   0.123   0.125   0.122   0.118   0.121   0.120   0.122   0.120   0.120   0.125   0.122   0.125   0.122   0.119   0.120   0.116   0.117   0.113   0.121   0.120   0.113   0.116   0.114   0.111   0.114   0.116   0.114   0.114   0.117
    75.40    0.122   0.117   0.119   0.118   0.118   0.118   0.120   0.119   0.119   0.121   0.121   0.123   0.122   0.120   0.119   0.120   0.122   0.121   0.121   0.118   0.117   0.115   0.116   0.122   0.118   0.118   0.113   0.115   0.109   0.114   0.113   0.112   0.113   0.112   0.115
    70.75    0.119   0.119   0.119   0.117   0.115   0.117   0.121   0.122   0.121   0.118   0.120   0.120   0.119   0.117   0.120   0.118   0.123   0.121   0.118   0.120   0.118   0.116   0.118   0.123   0.120   0.117   0.119   0.111   0.110   0.114   0.115   0.114   0.111   0.109   0.113
    66.10    0.123   0.121   0.118   0.119   0.119   0.123   0.120   0.123   0.123   0.122   0.116   0.118   0.117   0.117   0.118   0.116   0.123   0.122   0.120   0.119   0.119   0.119   0.114   0.122   0.118   0.118   0.112   0.110   0.111   0.110   0.110   0.111   0.109   0.113   0.114
    61.45    0.121   0.123   0.122   0.119   0.117   0.120   0.119   0.121   0.117   0.119   0.112   0.114   0.116   0.115   0.114   0.115   0.118   0.119   0.119   0.126   0.118   0.118   0.118   0.125   0.121   0.120   0.115   0.114   0.110   0.112   0.115   0.114   0.111   0.111   0.114
    56.80    0.120   0.123   0.122   0.121   0.118   0.116   0.118   0.117   0.118   0.118   0.118   0.113   0.113   0.114   0.114   0.112   0.118   0.120   0.127   0.128   0.123   0.117   0.121   0.125   0.123   0.120   0.119   0.116   0.115   0.112   0.112   0.111   0.110   0.112   0.111
    52.15    0.119   0.121   0.118   0.120   0.118   0.115   0.122   0.118   0.121   0.120   0.116   0.111   0.109   0.113   0.117   0.116   0.120   0.121   0.121   0.126   0.120   0.121   0.118   0.125   0.123   0.121   0.124   0.119   0.118   0.116   0.110   0.109   0.109   0.111   0.112
    47.50    0.117   0.122   0.117   0.116   0.116   0.116   0.120   0.119   0.117   0.116   0.115   0.114   0.109   0.113   0.115   0.120   0.122   0.123   0.123   0.123   0.126   0.122   0.122   0.122   0.125   0.122   0.125   0.120   0.112   0.112   0.112   0.108   0.106   0.110   0.110
    42.85    0.121   0.117   0.115   0.115   0.113   0.119   0.121   0.115   0.115   0.116   0.114   0.116   0.117   0.114   0.118   0.124   0.121   0.126   0.123   0.123   0.116   0.121   0.122   0.119   0.123   0.121   0.117   0.116   0.108   0.112   0.110   0.111   0.114   0.117   0.117
    38.20    0.123   0.120   0.121   0.120   0.120   0.122   0.120   0.112   0.115   0.117   0.118   0.121   0.116   0.117   0.114   0.116   0.122   0.123   0.121   0.116   0.118   0.115   0.116   0.119   0.122   0.113   0.112   0.112   0.114   0.116   0.118   0.118   0.114   0.114   0.116
    33.55    0.121   0.118   0.121   0.120   0.123   0.117   0.115   0.112   0.113   0.122   0.117   0.114   0.120   0.115   0.118   0.121   0.117   0.121   0.117   0.114   0.117   0.115   0.115   0.117   0.118   0.111   0.112   0.112   0.113   0.119   0.125   0.120   0.113   0.115   0.118
    28.90    0.118   0.116   0.121   0.121   0.123   0.117   0.114   0.111   0.113   0.121   0.122   0.121   0.123   0.120   0.121   0.119   0.118   0.115   0.116   0.114   0.119   0.114   0.115   0.115   0.118   0.113   0.110   0.112   0.116   0.119   0.120   0.119   0.117   0.115   0.121
    24.25    0.116   0.121   0.123   0.119   0.123   0.120   0.117   0.117   0.121   0.126   0.122   0.119   0.119   0.120   0.124   0.123   0.119   0.118   0.118   0.117   0.118   0.117   0.113   0.115   0.113   0.111   0.111   0.114   0.115   0.118   0.122   0.118   0.117   0.121   0.121
    19.60    0.117   0.119   0.122   0.122   0.121   0.124   0.121   0.123   0.123   0.122   0.124   0.117   0.119   0.124   0.123   0.119   0.120   0.120   0.115   0.119   0.120   0.115   0.117   0.108   0.113   0.113   0.116   0.118   0.118   0.121   0.123   0.121   0.122   0.123   0.126
    14.95    0.121   0.125   0.126   0.125   0.125   0.122   0.119   0.116   0.121   0.119   0.122   0.116   0.117   0.120   0.118   0.116   0.114   0.116   0.119   0.119   0.120   0.115   0.111   0.115   0.116   0.117   0.118   0.120   0.119   0.121   0.124   0.119   0.116   0.122   0.127
    10.30    0.123   0.128   0.127   0.128   0.124   0.122   0.117   0.118   0.119   0.122   0.119   0.113   0.115   0.117   0.118   0.113   0.110   0.113   0.117   0.117   0.114   0.110   0.113   0.113   0.114   0.118   0.115   0.117   0.120   0.120   0.119   0.117   0.115   0.117   0.124
     5.65    0.121   0.123   0.127   0.127   0.127   0.118   0.118   0.116   0.115   0.118   0.123   0.119   0.117   0.114   0.117   0.115   0.114   0.114   0.114   0.117   0.119   0.116   0.113   0.112   0.112   0.115   0.117   0.118   0.124   0.120   0.119   0.114   0.115   0.117   0.124
     1.00    0.119   0.119   0.124   0.124   0.120   0.121   0.118   0.121   0.120   0.122   0.120   0.118   0.118   0.116   0.115   0.113   0.114   0.117   0.115   0.116   0.119   0.113   0.113   0.112   0.109   0.113   0.116   0.117   0.122   0.121   0.121   0.121   0.124   0.120   0.122

   Mean standard deviation across all grid points:
      u component:    0.268 m/s
      v component:    0.226 m/s
      w component:    0.119 m/s


U-component (X) statistics from the interpolated hub point:

   Mean =   9.9913 m/s
   TI   =   2.6159 %


Processing complete.  6109.5 CPU seconds used.
