
This summary file was generated by TurbSim (from OpenFAST-v3.5.3) on 19-Apr-2025 at 22:35:55.


Runtime Options:

1682697194  Random seed #1
    RANLUX  Type of random number generator
         F  Output binary HH turbulence parameters?
         F  Output formatted turbulence parameters?
         F  Output AeroDyn HH files?
         T  Output AeroDyn FF files?
         F  Output BLADED FF files?
         F  Output tower data?
         F  Output HAWC FF files?
         F  Output formatted FF files?
         T  Output coherent turbulence time step file?
 0 -  NONE  IEC turbulence models scaled to exact specified standard deviation


Turbine/Model Specifications:

        39  Vertical grid-point matrix dimension
       193  Horizontal grid-point matrix dimension
     0.250  Time step [seconds]
   900.000  Analysis time [seconds]
   900.000  Usable output time [seconds]
   177.700  Hub height [m]
   353.400  Grid height [m]
  1785.600  Grid width [m]
     0.000  Vertical flow angle [degrees]
     0.000  Horizontal flow angle [degrees]


Meteorological Boundary Conditions:

    IECKAI  IEC Kaimal spectral model
         1  IEC standard: IEC 61400-1 Ed. 3: 2005
     6.000  Percent turbulence intensity, IEC 61400-1 Ed. 3: 2005
       NTM  IEC Normal Turbulence Model
       N/A  IEC Extreme Turbulence Model (ETM) "c" parameter [m/s]
       USR  Wind profile type
    90.000  Reference height [m]
       N/A  Reference wind speed [m/s]
       N/A  Jet height [m]
       N/A  Power law exponent
     0.030  Surface roughness length [m]


Non-IEC Meteorological Boundary Conditions:

       N/A  Site latitude [degrees]
       N/A  Gradient Richardson number
       N/A  Friction or shear velocity [m/s]
       N/A  Mixing layer depth [m]
       N/A  Mean hub u'w' Reynolds stress
       N/A  Mean hub u'v' Reynolds stress
       N/A  Mean hub v'w' Reynolds stress


Spatial Coherence Models:

       IEC  u-component coherence model
       IEC  v-component coherence model
       IEC  w-component coherence model
(   12.000, 0.353E-03)  u-component coherence parameters
(   12.000, 0.353E-03)  v-component coherence parameters
(   12.000, 0.353E-03)  w-component coherence parameters
       N/A  Coherence exponent


User-Defined Profiles:

  Height   Wind Speed   Horizontal Angle
   (m)        (m/s)          (deg)      
  ------   ----------   ----------------
  353.40      10.00         318.19
  334.80      10.00         321.14
  316.20      10.00         324.10
  297.60      10.00         327.05
  279.00      10.00         330.00
  260.40      10.00         332.95
  241.80      10.00         335.90
  223.20      10.00         338.86
  204.60      10.00         341.81
  186.00      10.00         344.76
  167.40      10.00         347.71
  148.80      10.00         350.67
  130.20      10.00         353.62
  111.60      10.00         356.57
   93.00      10.00         359.52
   74.40      10.00           2.48
   55.80      10.00           5.43
   37.20      10.00           8.38
   18.60      10.00          11.33
    0.00      10.00          14.29


You have requested that the following file(s) be generated:

   /kfs3/scratch/agupta/Projects/RL_Incubator/FinalRuns_Veer/Seed4/./FFSim_Seed4/Cond00_v10.0_PL0.12_TI6.0/Seed_5/Low.bts (AeroDyn/TurbSim full-field wind file)


Turbulence Simulation Scaling Parameter Summary:

   Turbulence model used                            =  IEC Kaimal
   Turbulence characteristic                        =  User-specified
   IEC standard                                     =  IEC 61400-1 Ed. 3: 2005
   Mean wind speed at hub height                    =   10.000 m/s
   Characteristic value of standard deviation       =    0.600 m/s
   Turbulence scale                                 =   42.000 m
   u-component integral scale                       =  340.200 m
   Coherency scale                                  =  340.200 m
   Characteristic value of hub turbulence intensity =    6.000%
   Gradient Richardson number                       =    0.000

   Wind profile type                                =  Linear interpolation of user-defined profile
   Equivalent power law exponent (upper rotor disk) =    0.000
   Mean shear across rotor disk                     =    0.000 (m/s)/m
   Assumed rotor diameter                           =  353.400 m
   Surface roughness length                         =    0.030 m

   Nyquist frequency of turbulent wind field        =    2.000 Hz

   Number of time steps in the FFT                  =     3600
   Number of time steps output                      =     3600
   Number of points simulated                       =     7527


Mean Flow Angles:

   Vertical   =   0.0 degrees
   Horizontal =   0.0 degrees

Mean Wind Speed Profile:

   Height    Wind Speed   Horizontal Angle  Vertical Angle  U-comp (X)   V-comp (Y)   W-comp (Z)
     (m)        (m/s)         (degrees)       (degrees)       (m/s)        (m/s)        (m/s)   
   ------    ----------   ----------------  --------------  ----------   ----------   ----------
    354.4       10.00          318.19            0.00          7.45        -6.67         0.00
    345.1       10.00          319.51            0.00          7.60        -6.49         0.00
    335.8       10.00          320.98            0.00          7.77        -6.30         0.00
    326.5       10.00          322.46            0.00          7.93        -6.09         0.00
    317.2       10.00          323.94            0.00          8.08        -5.89         0.00
    307.9       10.00          325.41            0.00          8.23        -5.68         0.00
    298.6       10.00          326.89            0.00          8.38        -5.46         0.00
    289.3       10.00          328.37            0.00          8.51        -5.25         0.00
    280.0       10.00          329.84            0.00          8.65        -5.02         0.00
    270.7       10.00          331.32            0.00          8.77        -4.80         0.00
    261.4       10.00          332.79            0.00          8.89        -4.57         0.00
    252.1       10.00          334.27            0.00          9.01        -4.34         0.00
    242.8       10.00          335.75            0.00          9.12        -4.11         0.00
    233.5       10.00          337.22            0.00          9.22        -3.87         0.00
    224.2       10.00          338.70            0.00          9.32        -3.63         0.00
    214.9       10.00          340.17            0.00          9.41        -3.39         0.00
    205.6       10.00          341.65            0.00          9.49        -3.15         0.00
    196.3       10.00          343.13            0.00          9.57        -2.90         0.00
    187.0       10.00          344.60            0.00          9.64        -2.66         0.00
    177.7       10.00          346.08            0.00          9.71        -2.41         0.00
    168.4       10.00          347.56            0.00          9.77        -2.15         0.00
    159.1       10.00          349.03            0.00          9.82        -1.90         0.00
    149.8       10.00          350.51            0.00          9.86        -1.65         0.00
    140.5       10.00          351.98            0.00          9.90        -1.39         0.00
    131.2       10.00          353.46            0.00          9.93        -1.14         0.00
    121.9       10.00          354.94            0.00          9.96        -0.88         0.00
    112.6       10.00          356.41            0.00          9.98        -0.63         0.00
    103.3       10.00          357.89            0.00          9.99        -0.37         0.00
     94.0       10.00          359.37            0.00         10.00        -0.11         0.00
     84.7       10.00          360.84            0.00         10.00         0.15         0.00
     75.4       10.00          362.32            0.00          9.99         0.40         0.00
     66.1       10.00            3.79            0.00          9.98         0.66         0.00
     56.8       10.00            5.27            0.00          9.96         0.92         0.00
     47.5       10.00            6.75            0.00          9.93         1.17         0.00
     38.2       10.00            8.22            0.00          9.90         1.43         0.00
     28.9       10.00            9.70            0.00          9.86         1.68         0.00
     19.6       10.00           11.17            0.00          9.81         1.94         0.00
     10.3       10.00           12.65            0.00          9.76         2.19         0.00
      1.0       10.00           14.13            0.00          9.70         2.44         0.00


Harvested Random Seeds after Generation of the Random Numbers:

    377667225 K 1
            0 K 2


Hub-Height Simulated Turbulence Statistical Summary:

   Type of Wind        Min (m/s)   Mean (m/s)    Max (m/s)  Sigma (m/s)       TI (%)
   ----------------    ---------   ----------    ---------  -----------       ------
   Longitudinal (u)         7.88        10.00        11.81        0.636        6.362
   Lateral (v)             -1.36        -0.00         1.51        0.412        4.124
   Vertical (w)            -1.01        -0.00         0.89        0.280        2.797
   U component              7.59         9.71        11.67        0.615        6.337
   V component             -3.80        -2.41        -0.88        0.443        4.566
   W component             -1.01        -0.00         0.89        0.280        2.881
   Horizontal (U&V)         7.88        10.01        11.84        0.635        6.348
   Total                    7.88        10.01        11.84        0.635        6.346

                       Min Reynolds     Mean Reynolds    Max Reynolds    Correlation
   Product             Stress (m/s)^2   Stress (m/s)^2   Stress (m/s)^2  Coefficient
   ----------------    --------------   --------------   --------------  -----------
   u'w'                     -0.676            -0.002             0.936        -0.010
   u'v'                     -1.382            -0.027             1.753        -0.104
   v'w'                     -0.778             0.000             0.767         0.003


   Friction Velocity (Ustar)  =      0.043 m/s
   Maximum Instantaneous TKE  =      2.286 (m/s)^2
   Maximum Instantaneous CTKE =      0.984 (m/s)^2


Grid Point Variance Summary:

   Y-coord -892.80 -883.50 -874.20 -864.90 -855.60 -846.30 -837.00 -827.70 -818.40 -809.10 -799.80 -790.50 -781.20 -771.90 -762.60 -753.30 -744.00 -734.70 -725.40 -716.10 -706.80 -697.50 -688.20 -678.90 -669.60 -660.30 -651.00 -641.70 -632.40 -623.10 -613.80 -604.50 -595.20 -585.90 -576.60 -567.30 -558.00 -548.70 -539.40 -530.10 -520.80 -511.50 -502.20 -492.90 -483.60 -474.30 -465.00 -455.70 -446.40 -437.10 -427.80 -418.50 -409.20 -399.90 -390.60 -381.30 -372.00 -362.70 -353.40 -344.10 -334.80 -325.50 -316.20 -306.90 -297.60 -288.30 -279.00 -269.70 -260.40 -251.10 -241.80 -232.50 -223.20 -213.90 -204.60 -195.30 -186.00 -176.70 -167.40 -158.10 -148.80 -139.50 -130.20 -120.90 -111.60 -102.30  -93.00  -83.70  -74.40  -65.10  -55.80  -46.50  -37.20  -27.90  -18.60   -9.30    0.00    9.30   18.60   27.90   37.20   46.50   55.80   65.10   74.40   83.70   93.00  102.30  111.60  120.90  130.20  139.50  148.80  158.10  167.40  176.70  186.00  195.30  204.60  213.90  223.20  232.50  241.80  251.10  260.40  269.70  279.00  288.30  297.60  306.90  316.20  325.50  334.80  344.10  353.40  362.70  372.00  381.30  390.60  399.90  409.20  418.50  427.80  437.10  446.40  455.70  465.00  474.30  483.60  492.90  502.20  511.50  520.80  530.10  539.40  548.70  558.00  567.30  576.60  585.90  595.20  604.50  613.80  623.10  632.40  641.70  651.00  660.30  669.60  678.90  688.20  697.50  706.80  716.10  725.40  734.70  744.00  753.30  762.60  771.90  781.20  790.50  799.80  809.10  818.40  827.70  837.00  846.30  855.60  864.90  874.20  883.50  892.80

   Height   Standard deviation at grid points for the u component:
   354.40    0.614   0.628   0.608   0.599   0.543   0.531   0.534   0.554   0.567   0.524   0.532   0.551   0.544   0.557   0.565   0.578   0.568   0.556   0.570   0.535   0.505   0.523   0.532   0.544   0.574   0.545   0.585   0.571   0.608   0.638   0.665   0.603   0.612   0.648   0.675   0.701   0.674   0.670   0.629   0.607   0.521   0.532   0.535   0.522   0.504   0.513   0.461   0.506   0.519   0.533   0.558   0.544   0.551   0.570   0.557   0.540   0.541   0.548   0.554   0.517   0.528   0.569   0.573   0.582   0.596   0.543   0.535   0.524   0.550   0.524   0.531   0.536   0.576   0.547   0.527   0.537   0.554   0.554   0.517   0.546   0.520   0.540   0.523   0.577   0.555   0.529   0.539   0.503   0.508   0.477   0.495   0.527   0.497   0.476   0.477   0.450   0.490   0.492   0.464   0.525   0.500   0.513   0.490   0.520   0.547   0.564   0.588   0.591   0.569   0.569   0.560   0.593   0.596   0.624   0.567   0.541   0.553   0.563   0.602   0.635   0.597   0.584   0.605   0.649   0.619   0.600   0.582   0.575   0.608   0.613   0.518   0.528   0.560   0.565   0.560   0.576   0.532   0.562   0.529   0.510   0.507   0.521   0.543   0.540   0.512   0.510   0.527   0.532   0.540   0.569   0.578   0.567   0.557   0.540   0.521   0.528   0.514   0.534   0.540   0.496   0.467   0.497   0.547   0.512   0.517   0.526   0.493   0.525   0.502   0.575   0.539   0.526   0.568   0.541   0.559   0.547   0.543   0.525   0.574   0.545   0.503   0.488   0.499   0.488   0.515   0.493   0.536   0.549   0.538   0.527   0.505   0.488   0.463
   345.10    0.592   0.615   0.632   0.607   0.622   0.576   0.520   0.552   0.547   0.533   0.560   0.557   0.575   0.573   0.556   0.573   0.569   0.497   0.529   0.538   0.559   0.572   0.589   0.540   0.588   0.570   0.603   0.572   0.621   0.654   0.646   0.583   0.566   0.621   0.629   0.697   0.718   0.660   0.634   0.573   0.552   0.562   0.523   0.551   0.510   0.507   0.467   0.498   0.535   0.555   0.553   0.588   0.544   0.564   0.553   0.533   0.561   0.511   0.524   0.515   0.546   0.548   0.562   0.565   0.575   0.557   0.513   0.526   0.532   0.516   0.525   0.517   0.556   0.559   0.531   0.531   0.552   0.540   0.520   0.547   0.537   0.607   0.580   0.605   0.622   0.527   0.568   0.541   0.504   0.517   0.499   0.475   0.468   0.455   0.453   0.476   0.483   0.499   0.494   0.498   0.489   0.538   0.547   0.560   0.558   0.590   0.633   0.639   0.595   0.610   0.585   0.657   0.625   0.635   0.574   0.580   0.613   0.614   0.588   0.607   0.619   0.609   0.615   0.596   0.602   0.572   0.573   0.590   0.614   0.610   0.553   0.531   0.530   0.555   0.513   0.520   0.552   0.560   0.529   0.490   0.498   0.519   0.536   0.527   0.500   0.503   0.511   0.547   0.555   0.589   0.620   0.593   0.548   0.518   0.503   0.537   0.535   0.582   0.553   0.524   0.541   0.509   0.529   0.561   0.546   0.552   0.541   0.530   0.569   0.578   0.582   0.612   0.622   0.606   0.608   0.621   0.611   0.618   0.602   0.543   0.493   0.475   0.483   0.468   0.488   0.513   0.547   0.561   0.562   0.520   0.524   0.500   0.533
   335.80    0.618   0.625   0.648   0.611   0.620   0.574   0.572   0.561   0.552   0.543   0.582   0.593   0.594   0.566   0.541   0.523   0.517   0.485   0.463   0.481   0.523   0.564   0.559   0.569   0.599   0.630   0.543   0.581   0.571   0.586   0.596   0.607   0.601   0.589   0.585   0.655   0.689   0.629   0.656   0.599   0.554   0.515   0.522   0.564   0.525   0.488   0.511   0.553   0.482   0.504   0.551   0.574   0.557   0.571   0.555   0.584   0.570   0.557   0.555   0.545   0.504   0.518   0.568   0.560   0.543   0.514   0.542   0.511   0.550   0.535   0.528   0.519   0.512   0.565   0.563   0.565   0.528   0.522   0.543   0.578   0.604   0.634   0.593   0.631   0.628   0.606   0.547   0.534   0.531   0.509   0.461   0.472   0.500   0.512   0.499   0.493   0.475   0.478   0.488   0.520   0.560   0.534   0.552   0.575   0.594   0.590   0.621   0.585   0.582   0.576   0.623   0.674   0.692   0.647   0.657   0.652   0.594   0.622   0.596   0.602   0.585   0.589   0.590   0.579   0.562   0.573   0.588   0.604   0.585   0.603   0.568   0.556   0.534   0.502   0.498   0.502   0.505   0.524   0.504   0.492   0.498   0.546   0.532   0.492   0.505   0.494   0.509   0.533   0.551   0.597   0.613   0.601   0.567   0.545   0.525   0.531   0.557   0.566   0.565   0.539   0.569   0.531   0.544   0.556   0.533   0.536   0.563   0.553   0.552   0.583   0.604   0.635   0.635   0.622   0.616   0.661   0.663   0.641   0.620   0.538   0.498   0.455   0.449   0.455   0.494   0.505   0.536   0.526   0.519   0.527   0.521   0.498   0.530
   326.50    0.595   0.602   0.609   0.606   0.589   0.589   0.590   0.568   0.555   0.542   0.579   0.551   0.561   0.579   0.569   0.546   0.516   0.475   0.485   0.479   0.509   0.559   0.583   0.588   0.586   0.583   0.592   0.562   0.565   0.589   0.596   0.625   0.568   0.552   0.576   0.623   0.657   0.648   0.621   0.603   0.527   0.511   0.497   0.533   0.481   0.502   0.524   0.549   0.499   0.502   0.546   0.556   0.568   0.555   0.532   0.572   0.602   0.582   0.574   0.544   0.552   0.524   0.555   0.582   0.587   0.547   0.559   0.530   0.549   0.539   0.542   0.522   0.534   0.536   0.569   0.577   0.553   0.556   0.564   0.600   0.626   0.619   0.619   0.605   0.639   0.602   0.566   0.539   0.529   0.527   0.515   0.482   0.514   0.535   0.488   0.485   0.499   0.501   0.496   0.563   0.542   0.566   0.555   0.577   0.602   0.635   0.648   0.632   0.576   0.607   0.644   0.666   0.725   0.702   0.684   0.638   0.629   0.633   0.622   0.608   0.598   0.601   0.593   0.609   0.585   0.553   0.567   0.589   0.567   0.582   0.570   0.566   0.498   0.506   0.509   0.482   0.479   0.494   0.527   0.517   0.514   0.507   0.463   0.490   0.502   0.459   0.493   0.521   0.573   0.584   0.612   0.569   0.542   0.584   0.527   0.540   0.607   0.583   0.572   0.575   0.568   0.562   0.551   0.571   0.596   0.556   0.535   0.559   0.551   0.558   0.600   0.601   0.618   0.635   0.637   0.677   0.657   0.652   0.598   0.584   0.552   0.517   0.489   0.450   0.464   0.511   0.536   0.498   0.510   0.532   0.517   0.537   0.526
   317.20    0.573   0.593   0.586   0.605   0.568   0.539   0.569   0.555   0.570   0.566   0.559   0.557   0.589   0.579   0.536   0.529   0.535   0.475   0.485   0.479   0.521   0.572   0.596   0.575   0.559   0.559   0.565   0.552   0.536   0.516   0.546   0.555   0.559   0.581   0.620   0.614   0.643   0.652   0.595   0.571   0.538   0.502   0.499   0.513   0.512   0.555   0.553   0.562   0.522   0.543   0.531   0.562   0.535   0.543   0.548   0.567   0.591   0.559   0.584   0.578   0.598   0.535   0.566   0.558   0.578   0.538   0.563   0.556   0.573   0.524   0.543   0.539   0.511   0.530   0.538   0.585   0.566   0.578   0.574   0.575   0.596   0.645   0.616   0.627   0.571   0.614   0.617   0.586   0.574   0.561   0.539   0.525   0.500   0.501   0.480   0.465   0.480   0.491   0.486   0.484   0.521   0.551   0.561   0.590   0.622   0.656   0.720   0.735   0.627   0.661   0.666   0.656   0.692   0.713   0.668   0.667   0.632   0.641   0.594   0.633   0.632   0.604   0.623   0.582   0.562   0.550   0.571   0.572   0.585   0.583   0.557   0.534   0.495   0.493   0.498   0.478   0.513   0.506   0.507   0.510   0.482   0.519   0.493   0.496   0.519   0.509   0.495   0.551   0.585   0.614   0.620   0.590   0.598   0.568   0.541   0.578   0.595   0.618   0.612   0.640   0.645   0.633   0.623   0.573   0.584   0.577   0.528   0.576   0.539   0.533   0.561   0.608   0.644   0.638   0.641   0.639   0.663   0.649   0.583   0.593   0.548   0.509   0.508   0.519   0.511   0.528   0.519   0.504   0.497   0.513   0.511   0.495   0.515
   307.90    0.596   0.553   0.588   0.572   0.544   0.524   0.539   0.525   0.552   0.551   0.552   0.569   0.572   0.548   0.527   0.515   0.488   0.487   0.475   0.484   0.527   0.549   0.583   0.589   0.564   0.591   0.551   0.550   0.529   0.503   0.526   0.531   0.576   0.586   0.605   0.596   0.620   0.653   0.621   0.586   0.536   0.529   0.504   0.526   0.535   0.584   0.560   0.524   0.533   0.511   0.475   0.523   0.551   0.581   0.535   0.579   0.596   0.551   0.594   0.600   0.586   0.609   0.580   0.552   0.562   0.525   0.508   0.541   0.544   0.526   0.572   0.573   0.543   0.591   0.606   0.593   0.592   0.575   0.560   0.586   0.578   0.592   0.631   0.657   0.614   0.646   0.660   0.589   0.574   0.569   0.554   0.524   0.493   0.476   0.474   0.486   0.491   0.455   0.500   0.525   0.546   0.553   0.611   0.608   0.651   0.642   0.719   0.722   0.651   0.673   0.639   0.674   0.736   0.728   0.699   0.696   0.678   0.626   0.593   0.582   0.571   0.614   0.619   0.614   0.606   0.594   0.590   0.570   0.585   0.590   0.579   0.532   0.556   0.530   0.482   0.469   0.459   0.497   0.483   0.484   0.483   0.478   0.481   0.509   0.515   0.519   0.498   0.531   0.597   0.625   0.644   0.611   0.623   0.603   0.627   0.603   0.575   0.602   0.608   0.647   0.653   0.631   0.625   0.584   0.590   0.545   0.564   0.576   0.594   0.575   0.583   0.578   0.603   0.619   0.622   0.615   0.653   0.623   0.608   0.562   0.539   0.528   0.554   0.552   0.518   0.502   0.498   0.490   0.487   0.471   0.472   0.486   0.521
   298.60    0.610   0.585   0.551   0.570   0.513   0.517   0.542   0.560   0.578   0.576   0.542   0.512   0.524   0.524   0.511   0.494   0.481   0.486   0.494   0.523   0.505   0.525   0.531   0.564   0.589   0.615   0.543   0.531   0.517   0.526   0.510   0.522   0.569   0.589   0.604   0.592   0.620   0.650   0.607   0.580   0.572   0.544   0.531   0.536   0.547   0.570   0.603   0.552   0.552   0.501   0.483   0.510   0.560   0.554   0.564   0.573   0.572   0.607   0.598   0.573   0.590   0.589   0.584   0.539   0.499   0.514   0.551   0.534   0.542   0.594   0.598   0.581   0.590   0.598   0.628   0.643   0.586   0.578   0.547   0.579   0.599   0.609   0.635   0.671   0.639   0.644   0.689   0.638   0.581   0.528   0.518   0.521   0.506   0.499   0.520   0.527   0.505   0.495   0.514   0.510   0.554   0.557   0.621   0.635   0.623   0.625   0.630   0.666   0.683   0.646   0.671   0.710   0.768   0.727   0.729   0.726   0.697   0.677   0.638   0.570   0.601   0.621   0.648   0.624   0.636   0.604   0.582   0.588   0.600   0.592   0.580   0.539   0.565   0.545   0.504   0.477   0.490   0.497   0.501   0.530   0.463   0.469   0.496   0.493   0.518   0.496   0.539   0.508   0.602   0.641   0.629   0.616   0.623   0.642   0.610   0.603   0.572   0.630   0.668   0.647   0.684   0.645   0.660   0.630   0.567   0.575   0.553   0.570   0.594   0.600   0.583   0.615   0.588   0.573   0.599   0.601   0.657   0.650   0.641   0.616   0.545   0.551   0.566   0.554   0.533   0.545   0.523   0.492   0.493   0.476   0.521   0.499   0.544
   289.30    0.571   0.553   0.564   0.541   0.526   0.552   0.510   0.532   0.549   0.573   0.567   0.538   0.544   0.543   0.511   0.503   0.480   0.498   0.480   0.511   0.536   0.531   0.543   0.551   0.567   0.592   0.553   0.573   0.556   0.537   0.580   0.557   0.557   0.613   0.596   0.601   0.622   0.624   0.626   0.590   0.558   0.555   0.552   0.544   0.556   0.559   0.551   0.565   0.534   0.527   0.505   0.468   0.499   0.557   0.577   0.562   0.580   0.616   0.611   0.600   0.617   0.594   0.615   0.571   0.524   0.493   0.519   0.524   0.547   0.557   0.580   0.579   0.584   0.596   0.623   0.632   0.632   0.601   0.576   0.588   0.630   0.655   0.628   0.595   0.611   0.644   0.665   0.598   0.580   0.540   0.540   0.538   0.507   0.570   0.545   0.540   0.550   0.566   0.552   0.545   0.559   0.601   0.619   0.658   0.639   0.648   0.656   0.640   0.656   0.697   0.699   0.718   0.759   0.755   0.753   0.727   0.693   0.642   0.629   0.558   0.587   0.558   0.588   0.602   0.601   0.607   0.596   0.559   0.618   0.580   0.574   0.562   0.522   0.534   0.523   0.501   0.493   0.502   0.510   0.529   0.497   0.474   0.502   0.507   0.507   0.508   0.503   0.529   0.570   0.594   0.623   0.617   0.644   0.638   0.615   0.635   0.632   0.653   0.679   0.638   0.647   0.662   0.644   0.595   0.568   0.538   0.558   0.579   0.582   0.619   0.597   0.615   0.604   0.584   0.588   0.620   0.629   0.630   0.602   0.604   0.568   0.591   0.564   0.581   0.530   0.541   0.538   0.513   0.481   0.502   0.527   0.482   0.492
   280.00    0.574   0.580   0.569   0.533   0.545   0.543   0.541   0.548   0.567   0.614   0.576   0.561   0.542   0.576   0.571   0.544   0.496   0.506   0.521   0.553   0.535   0.555   0.593   0.571   0.551   0.596   0.603   0.573   0.604   0.609   0.608   0.589   0.560   0.598   0.584   0.590   0.589   0.595   0.560   0.589   0.608   0.570   0.559   0.547   0.556   0.562   0.498   0.500   0.525   0.510   0.492   0.483   0.512   0.565   0.585   0.567   0.599   0.586   0.599   0.625   0.614   0.590   0.599   0.529   0.544   0.530   0.537   0.531   0.566   0.524   0.568   0.618   0.627   0.630   0.653   0.642   0.626   0.619   0.590   0.614   0.688   0.716   0.656   0.634   0.631   0.632   0.637   0.585   0.589   0.565   0.533   0.544   0.528   0.594   0.590   0.626   0.612   0.580   0.540   0.600   0.622   0.616   0.605   0.617   0.622   0.598   0.618   0.638   0.660   0.659   0.649   0.699   0.747   0.723   0.759   0.739   0.695   0.680   0.610   0.593   0.609   0.601   0.583   0.564   0.572   0.590   0.607   0.583   0.611   0.607   0.594   0.541   0.534   0.548   0.516   0.571   0.548   0.562   0.525   0.521   0.466   0.481   0.484   0.506   0.528   0.492   0.527   0.485   0.508   0.520   0.565   0.578   0.593   0.630   0.631   0.662   0.630   0.631   0.695   0.673   0.619   0.613   0.628   0.604   0.541   0.559   0.591   0.584   0.568   0.592   0.560   0.546   0.583   0.591   0.591   0.582   0.619   0.593   0.616   0.602   0.588   0.593   0.538   0.542   0.545   0.526   0.525   0.553   0.546   0.510   0.522   0.517   0.517
   270.70    0.533   0.535   0.537   0.557   0.581   0.595   0.555   0.562   0.580   0.607   0.591   0.561   0.567   0.603   0.549   0.545   0.527   0.526   0.505   0.509   0.525   0.544   0.611   0.591   0.589   0.592   0.612   0.618   0.586   0.592   0.631   0.603   0.571   0.561   0.559   0.559   0.574   0.590   0.601   0.599   0.591   0.540   0.575   0.553   0.515   0.498   0.472   0.502   0.511   0.536   0.514   0.501   0.524   0.548   0.584   0.595   0.571   0.591   0.604   0.631   0.614   0.603   0.550   0.526   0.569   0.564   0.597   0.555   0.566   0.561   0.536   0.620   0.622   0.638   0.669   0.669   0.677   0.628   0.623   0.656   0.686   0.665   0.683   0.672   0.593   0.628   0.654   0.641   0.641   0.612   0.605   0.533   0.534   0.586   0.641   0.622   0.627   0.621   0.611   0.612   0.624   0.581   0.572   0.592   0.613   0.612   0.643   0.648   0.679   0.701   0.723   0.696   0.685   0.697   0.719   0.739   0.731   0.677   0.604   0.609   0.614   0.629   0.627   0.586   0.561   0.549   0.568   0.575   0.590   0.563   0.564   0.576   0.537   0.536   0.551   0.603   0.638   0.605   0.562   0.543   0.495   0.512   0.496   0.551   0.560   0.563   0.533   0.517   0.512   0.526   0.555   0.568   0.587   0.665   0.681   0.694   0.638   0.648   0.691   0.709   0.647   0.646   0.621   0.578   0.540   0.572   0.552   0.528   0.567   0.586   0.540   0.581   0.567   0.604   0.607   0.626   0.620   0.607   0.619   0.609   0.612   0.587   0.563   0.555   0.522   0.516   0.554   0.565   0.576   0.554   0.504   0.527   0.546
   261.40    0.506   0.491   0.502   0.558   0.598   0.609   0.561   0.585   0.576   0.584   0.590   0.607   0.577   0.560   0.556   0.542   0.517   0.526   0.509   0.518   0.511   0.514   0.599   0.565   0.576   0.604   0.615   0.600   0.577   0.603   0.606   0.581   0.533   0.591   0.566   0.548   0.554   0.577   0.586   0.589   0.563   0.547   0.535   0.534   0.561   0.519   0.536   0.508   0.503   0.502   0.466   0.468   0.479   0.522   0.544   0.566   0.585   0.575   0.549   0.609   0.578   0.575   0.576   0.586   0.602   0.609   0.606   0.583   0.600   0.577   0.593   0.599   0.613   0.626   0.646   0.628   0.656   0.596   0.638   0.653   0.699   0.717   0.669   0.645   0.631   0.669   0.652   0.655   0.645   0.611   0.567   0.578   0.582   0.623   0.656   0.663   0.674   0.618   0.583   0.582   0.576   0.574   0.601   0.609   0.618   0.607   0.639   0.661   0.720   0.722   0.698   0.692   0.700   0.719   0.710   0.742   0.723   0.685   0.662   0.628   0.635   0.638   0.639   0.609   0.555   0.578   0.558   0.533   0.522   0.511   0.565   0.588   0.553   0.531   0.588   0.627   0.628   0.603   0.584   0.557   0.491   0.495   0.540   0.566   0.590   0.549   0.524   0.547   0.549   0.535   0.544   0.560   0.600   0.660   0.687   0.675   0.668   0.639   0.687   0.689   0.631   0.619   0.644   0.622   0.611   0.567   0.538   0.548   0.569   0.572   0.557   0.600   0.571   0.612   0.602   0.625   0.604   0.599   0.604   0.619   0.596   0.561   0.547   0.537   0.516   0.521   0.536   0.522   0.535   0.523   0.529   0.519   0.538
   252.10    0.472   0.455   0.480   0.531   0.577   0.578   0.609   0.591   0.583   0.565   0.601   0.567   0.581   0.561   0.513   0.522   0.511   0.501   0.526   0.492   0.522   0.522   0.557   0.543   0.529   0.588   0.614   0.550   0.565   0.562   0.536   0.559   0.550   0.581   0.546   0.522   0.542   0.573   0.576   0.590   0.558   0.538   0.567   0.573   0.571   0.535   0.558   0.545   0.543   0.552   0.509   0.473   0.528   0.560   0.565   0.533   0.543   0.554   0.554   0.572   0.585   0.584   0.602   0.625   0.633   0.627   0.596   0.592   0.631   0.614   0.602   0.627   0.642   0.595   0.619   0.629   0.640   0.619   0.584   0.605   0.676   0.649   0.666   0.668   0.647   0.655   0.626   0.649   0.624   0.579   0.626   0.592   0.610   0.651   0.648   0.615   0.614   0.629   0.588   0.602   0.596   0.596   0.592   0.608   0.605   0.643   0.626   0.633   0.681   0.727   0.678   0.701   0.719   0.735   0.729   0.729   0.684   0.695   0.684   0.701   0.678   0.630   0.638   0.586   0.606   0.590   0.575   0.584   0.536   0.502   0.516   0.552   0.553   0.544   0.606   0.599   0.601   0.613   0.591   0.566   0.523   0.541   0.545   0.575   0.569   0.567   0.549   0.588   0.562   0.558   0.537   0.568   0.573   0.647   0.685   0.658   0.686   0.684   0.683   0.678   0.658   0.644   0.639   0.633   0.575   0.505   0.571   0.566   0.564   0.582   0.571   0.569   0.549   0.582   0.607   0.617   0.604   0.617   0.617   0.609   0.595   0.548   0.592   0.539   0.514   0.496   0.489   0.535   0.559   0.547   0.505   0.489   0.498
   242.80    0.518   0.508   0.509   0.507   0.548   0.591   0.619   0.587   0.585   0.622   0.606   0.594   0.594   0.546   0.523   0.501   0.492   0.476   0.482   0.504   0.520   0.509   0.522   0.534   0.548   0.577   0.611   0.552   0.540   0.548   0.530   0.460   0.483   0.525   0.499   0.520   0.524   0.528   0.572   0.554   0.530   0.528   0.572   0.561   0.534   0.558   0.560   0.507   0.540   0.555   0.521   0.491   0.525   0.578   0.559   0.578   0.559   0.558   0.552   0.567   0.566   0.568   0.603   0.651   0.637   0.635   0.637   0.641   0.651   0.662   0.626   0.640   0.652   0.645   0.645   0.632   0.606   0.590   0.621   0.625   0.679   0.644   0.631   0.643   0.641   0.664   0.656   0.651   0.604   0.634   0.616   0.590   0.630   0.645   0.615   0.596   0.616   0.583   0.567   0.555   0.626   0.599   0.583   0.621   0.599   0.629   0.639   0.623   0.672   0.716   0.704   0.716   0.728   0.695   0.738   0.755   0.714   0.698   0.716   0.696   0.679   0.648   0.642   0.625   0.622   0.599   0.579   0.540   0.513   0.546   0.549   0.533   0.554   0.568   0.616   0.620   0.600   0.605   0.570   0.541   0.539   0.576   0.556   0.554   0.572   0.511   0.541   0.549   0.567   0.531   0.536   0.567   0.570   0.624   0.649   0.655   0.648   0.654   0.690   0.689   0.627   0.638   0.659   0.618   0.551   0.550   0.549   0.590   0.605   0.616   0.592   0.606   0.560   0.587   0.593   0.640   0.619   0.609   0.604   0.595   0.575   0.569   0.556   0.558   0.530   0.499   0.526   0.530   0.550   0.545   0.545   0.500   0.508
   233.50    0.514   0.496   0.522   0.508   0.548   0.571   0.582   0.546   0.546   0.595   0.611   0.602   0.541   0.544   0.517   0.497   0.473   0.438   0.487   0.523   0.506   0.491   0.541   0.501   0.509   0.550   0.591   0.541   0.528   0.556   0.559   0.473   0.455   0.469   0.484   0.507   0.512   0.559   0.531   0.552   0.589   0.542   0.561   0.597   0.519   0.541   0.549   0.515   0.524   0.537   0.526   0.558   0.566   0.621   0.607   0.591   0.595   0.600   0.599   0.613   0.610   0.622   0.636   0.638   0.625   0.670   0.669   0.656   0.691   0.703   0.677   0.630   0.631   0.699   0.632   0.641   0.633   0.635   0.672   0.693   0.650   0.694   0.662   0.703   0.653   0.668   0.615   0.649   0.654   0.648   0.646   0.634   0.660   0.667   0.644   0.647   0.606   0.577   0.607   0.603   0.603   0.610   0.625   0.660   0.644   0.630   0.636   0.633   0.689   0.726   0.669   0.687   0.708   0.725   0.731   0.759   0.724   0.695   0.676   0.678   0.669   0.656   0.651   0.638   0.589   0.575   0.549   0.551   0.521   0.531   0.560   0.534   0.549   0.581   0.620   0.607   0.649   0.634   0.632   0.589   0.596   0.598   0.553   0.536   0.545   0.521   0.526   0.536   0.532   0.534   0.492   0.543   0.578   0.555   0.594   0.596   0.610   0.632   0.650   0.670   0.657   0.658   0.693   0.622   0.618   0.535   0.543   0.617   0.618   0.622   0.654   0.607   0.589   0.620   0.615   0.626   0.623   0.611   0.587   0.555   0.588   0.570   0.550   0.537   0.530   0.524   0.511   0.534   0.564   0.549   0.558   0.557   0.526
   224.20    0.510   0.499   0.520   0.514   0.551   0.585   0.588   0.611   0.577   0.584   0.575   0.620   0.545   0.531   0.537   0.455   0.484   0.493   0.530   0.529   0.499   0.517   0.506   0.508   0.493   0.552   0.563   0.563   0.521   0.510   0.503   0.481   0.481   0.460   0.474   0.511   0.496   0.544   0.558   0.565   0.609   0.550   0.539   0.538   0.505   0.542   0.532   0.512   0.531   0.570   0.571   0.591   0.604   0.609   0.611   0.624   0.600   0.608   0.585   0.587   0.613   0.627   0.620   0.641   0.677   0.678   0.674   0.658   0.650   0.696   0.650   0.642   0.605   0.651   0.673   0.672   0.667   0.658   0.687   0.708   0.702   0.698   0.670   0.709   0.752   0.672   0.656   0.654   0.666   0.632   0.623   0.617   0.632   0.678   0.678   0.680   0.651   0.609   0.642   0.642   0.665   0.674   0.696   0.688   0.662   0.626   0.653   0.673   0.681   0.702   0.656   0.623   0.654   0.666   0.718   0.714   0.666   0.652   0.677   0.663   0.667   0.658   0.602   0.601   0.613   0.611   0.567   0.544   0.549   0.567   0.563   0.556   0.592   0.606   0.613   0.618   0.657   0.643   0.666   0.625   0.619   0.565   0.570   0.570   0.559   0.594   0.550   0.544   0.513   0.551   0.576   0.558   0.587   0.536   0.546   0.591   0.597   0.625   0.647   0.644   0.665   0.616   0.641   0.669   0.630   0.540   0.567   0.624   0.623   0.614   0.634   0.646   0.651   0.642   0.627   0.608   0.653   0.644   0.583   0.576   0.571   0.566   0.565   0.531   0.559   0.569   0.552   0.572   0.567   0.564   0.554   0.537   0.526
   214.90    0.544   0.508   0.518   0.537   0.546   0.571   0.630   0.614   0.595   0.585   0.620   0.599   0.582   0.566   0.560   0.493   0.512   0.481   0.514   0.498   0.485   0.501   0.558   0.557   0.532   0.507   0.555   0.502   0.524   0.552   0.501   0.474   0.490   0.483   0.528   0.499   0.524   0.554   0.543   0.571   0.608   0.594   0.588   0.561   0.546   0.505   0.580   0.563   0.571   0.570   0.575   0.541   0.579   0.606   0.604   0.611   0.594   0.610   0.592   0.600   0.638   0.653   0.607   0.648   0.649   0.648   0.643   0.693   0.671   0.672   0.655   0.659   0.679   0.661   0.706   0.703   0.714   0.685   0.735   0.720   0.741   0.735   0.681   0.643   0.693   0.718   0.671   0.657   0.651   0.655   0.621   0.591   0.642   0.662   0.664   0.693   0.663   0.670   0.654   0.659   0.678   0.725   0.713   0.678   0.674   0.658   0.644   0.645   0.667   0.694   0.657   0.646   0.625   0.659   0.654   0.698   0.663   0.666   0.658   0.622   0.655   0.682   0.598   0.551   0.595   0.585   0.555   0.536   0.593   0.599   0.535   0.568   0.588   0.579   0.607   0.620   0.634   0.640   0.631   0.618   0.643   0.571   0.593   0.619   0.620   0.605   0.634   0.567   0.531   0.536   0.552   0.559   0.579   0.550   0.562   0.575   0.603   0.614   0.627   0.650   0.606   0.649   0.668   0.623   0.609   0.563   0.591   0.597   0.648   0.590   0.614   0.636   0.643   0.631   0.625   0.646   0.680   0.631   0.597   0.556   0.566   0.552   0.569   0.547   0.557   0.551   0.531   0.552   0.555   0.542   0.509   0.509   0.511
   205.60    0.548   0.525   0.553   0.536   0.603   0.574   0.617   0.659   0.638   0.605   0.677   0.613   0.574   0.563   0.539   0.500   0.512   0.487   0.515   0.511   0.526   0.582   0.590   0.610   0.553   0.522   0.551   0.533   0.500   0.510   0.513   0.486   0.497   0.515   0.503   0.504   0.555   0.564   0.593   0.591   0.613   0.606   0.622   0.601   0.547   0.540   0.568   0.593   0.571   0.542   0.544   0.571   0.579   0.614   0.606   0.605   0.569   0.587   0.608   0.599   0.643   0.620   0.617   0.636   0.628   0.656   0.642   0.669   0.673   0.673   0.672   0.703   0.746   0.728   0.774   0.754   0.728   0.707   0.710   0.675   0.702   0.695   0.640   0.666   0.651   0.675   0.704   0.657   0.652   0.675   0.667   0.610   0.643   0.653   0.613   0.651   0.638   0.655   0.682   0.684   0.697   0.707   0.721   0.690   0.688   0.728   0.717   0.667   0.712   0.657   0.646   0.649   0.620   0.591   0.614   0.671   0.633   0.633   0.628   0.610   0.644   0.630   0.584   0.567   0.575   0.564   0.550   0.538   0.533   0.568   0.572   0.580   0.598   0.624   0.603   0.653   0.616   0.598   0.604   0.606   0.593   0.613   0.620   0.635   0.638   0.631   0.642   0.617   0.553   0.547   0.567   0.552   0.534   0.549   0.590   0.586   0.539   0.564   0.566   0.577   0.613   0.623   0.658   0.658   0.598   0.561   0.562   0.612   0.598   0.607   0.620   0.624   0.642   0.630   0.657   0.643   0.628   0.628   0.627   0.584   0.591   0.541   0.525   0.532   0.524   0.512   0.507   0.553   0.509   0.491   0.524   0.539   0.525
   196.30    0.527   0.540   0.569   0.589   0.606   0.640   0.682   0.697   0.688   0.661   0.662   0.620   0.555   0.530   0.531   0.522   0.497   0.505   0.522   0.541   0.562   0.595   0.607   0.613   0.575   0.561   0.539   0.527   0.515   0.540   0.490   0.521   0.509   0.515   0.533   0.519   0.553   0.536   0.550   0.558   0.556   0.579   0.578   0.584   0.564   0.577   0.581   0.559   0.558   0.520   0.505   0.535   0.540   0.608   0.608   0.581   0.565   0.554   0.575   0.625   0.601   0.586   0.605   0.602   0.616   0.657   0.683   0.699   0.694   0.712   0.719   0.768   0.814   0.777   0.782   0.733   0.731   0.695   0.657   0.631   0.682   0.691   0.703   0.669   0.694   0.694   0.739   0.687   0.688   0.630   0.644   0.610   0.636   0.642   0.629   0.621   0.621   0.624   0.678   0.719   0.739   0.739   0.689   0.669   0.683   0.693   0.720   0.670   0.670   0.694   0.661   0.652   0.613   0.604   0.646   0.659   0.580   0.617   0.655   0.614   0.595   0.590   0.568   0.550   0.556   0.576   0.553   0.525   0.557   0.530   0.569   0.596   0.627   0.627   0.646   0.681   0.659   0.603   0.650   0.629   0.636   0.680   0.670   0.647   0.671   0.673   0.662   0.596   0.595   0.570   0.589   0.594   0.586   0.609   0.624   0.610   0.548   0.551   0.510   0.498   0.555   0.581   0.603   0.622   0.588   0.581   0.543   0.600   0.591   0.605   0.630   0.641   0.640   0.635   0.660   0.646   0.610   0.649   0.611   0.626   0.526   0.517   0.534   0.506   0.498   0.511   0.534   0.536   0.520   0.525   0.535   0.533   0.552
   187.00    0.543   0.553   0.597   0.609   0.639   0.706   0.734   0.753   0.689   0.638   0.628   0.653   0.600   0.534   0.497   0.461   0.485   0.531   0.535   0.528   0.562   0.586   0.590   0.605   0.565   0.546   0.519   0.566   0.579   0.549   0.516   0.536   0.535   0.527   0.522   0.525   0.505   0.536   0.535   0.526   0.525   0.553   0.592   0.608   0.546   0.540   0.586   0.533   0.545   0.539   0.504   0.536   0.604   0.600   0.602   0.604   0.592   0.580   0.599   0.601   0.591   0.582   0.608   0.608   0.638   0.674   0.694   0.690   0.691   0.725   0.782   0.772   0.768   0.776   0.759   0.694   0.671   0.690   0.683   0.688   0.670   0.695   0.692   0.684   0.650   0.687   0.694   0.691   0.671   0.663   0.641   0.648   0.614   0.625   0.601   0.628   0.643   0.672   0.688   0.715   0.718   0.697   0.680   0.670   0.713   0.685   0.677   0.688   0.608   0.661   0.674   0.619   0.617   0.650   0.626   0.595   0.578   0.619   0.660   0.608   0.608   0.616   0.573   0.572   0.569   0.557   0.566   0.553   0.516   0.525   0.565   0.607   0.592   0.587   0.621   0.655   0.697   0.683   0.632   0.626   0.642   0.673   0.679   0.653   0.648   0.663   0.667   0.615   0.642   0.612   0.592   0.587   0.589   0.614   0.620   0.580   0.568   0.518   0.472   0.490   0.487   0.553   0.600   0.606   0.597   0.552   0.582   0.604   0.615   0.628   0.625   0.651   0.620   0.605   0.606   0.659   0.606   0.625   0.615   0.597   0.530   0.536   0.531   0.514   0.509   0.547   0.508   0.515   0.496   0.494   0.512   0.533   0.565
   177.70    0.499   0.573   0.632   0.597   0.653   0.661   0.681   0.723   0.702   0.640   0.636   0.618   0.591   0.523   0.491   0.469   0.486   0.533   0.535   0.556   0.565   0.558   0.596   0.588   0.561   0.561   0.546   0.540   0.557   0.529   0.536   0.514   0.529   0.520   0.495   0.525   0.507   0.517   0.522   0.506   0.546   0.574   0.558   0.526   0.517   0.562   0.583   0.555   0.529   0.590   0.551   0.563   0.585   0.624   0.590   0.635   0.609   0.581   0.587   0.611   0.574   0.577   0.618   0.656   0.658   0.675   0.646   0.656   0.646   0.706   0.726   0.733   0.752   0.742   0.703   0.650   0.675   0.713   0.691   0.669   0.634   0.665   0.680   0.660   0.671   0.664   0.657   0.662   0.648   0.651   0.626   0.624   0.613   0.642   0.670   0.654   0.636   0.679   0.733   0.662   0.668   0.660   0.667   0.720   0.709   0.686   0.670   0.674   0.597   0.672   0.690   0.653   0.597   0.608   0.592   0.611   0.564   0.595   0.625   0.634   0.566   0.558   0.552   0.556   0.560   0.580   0.582   0.580   0.542   0.567   0.558   0.585   0.616   0.621   0.635   0.650   0.664   0.662   0.613   0.631   0.640   0.632   0.670   0.656   0.642   0.652   0.626   0.640   0.648   0.597   0.579   0.614   0.574   0.595   0.591   0.582   0.571   0.535   0.470   0.478   0.518   0.516   0.533   0.584   0.550   0.532   0.552   0.601   0.593   0.641   0.623   0.656   0.613   0.621   0.608   0.637   0.638   0.620   0.667   0.611   0.573   0.554   0.561   0.555   0.551   0.506   0.524   0.505   0.479   0.513   0.535   0.514   0.568
   168.40    0.508   0.577   0.610   0.590   0.582   0.624   0.622   0.649   0.658   0.613   0.604   0.580   0.542   0.544   0.526   0.481   0.484   0.557   0.545   0.543   0.583   0.579   0.580   0.612   0.596   0.575   0.528   0.561   0.541   0.528   0.500   0.517   0.531   0.524   0.544   0.501   0.518   0.512   0.495   0.524   0.545   0.567   0.539   0.508   0.555   0.523   0.587   0.557   0.600   0.588   0.561   0.601   0.638   0.614   0.635   0.610   0.597   0.593   0.602   0.596   0.573   0.585   0.590   0.624   0.642   0.671   0.611   0.659   0.651   0.678   0.731   0.715   0.727   0.720   0.703   0.704   0.673   0.679   0.684   0.691   0.661   0.662   0.628   0.657   0.645   0.608   0.640   0.639   0.631   0.671   0.634   0.646   0.651   0.647   0.680   0.663   0.625   0.674   0.689   0.661   0.634   0.638   0.674   0.645   0.686   0.678   0.685   0.637   0.632   0.669   0.701   0.670   0.628   0.619   0.618   0.588   0.590   0.583   0.586   0.579   0.579   0.551   0.576   0.583   0.536   0.589   0.588   0.590   0.557   0.568   0.583   0.593   0.579   0.568   0.624   0.655   0.614   0.612   0.623   0.624   0.605   0.626   0.660   0.657   0.649   0.592   0.592   0.632   0.641   0.633   0.623   0.589   0.605   0.565   0.567   0.554   0.580   0.537   0.540   0.497   0.519   0.523   0.536   0.554   0.580   0.529   0.554   0.602   0.643   0.644   0.624   0.639   0.638   0.601   0.637   0.625   0.636   0.642   0.622   0.623   0.587   0.565   0.590   0.549   0.532   0.508   0.496   0.512   0.478   0.519   0.521   0.526   0.574
   159.10    0.518   0.584   0.589   0.610   0.623   0.642   0.628   0.636   0.629   0.604   0.622   0.605   0.543   0.525   0.534   0.517   0.506   0.557   0.534   0.539   0.557   0.604   0.596   0.587   0.645   0.608   0.543   0.523   0.539   0.530   0.520   0.520   0.532   0.522   0.551   0.522   0.522   0.531   0.477   0.497   0.518   0.539   0.546   0.506   0.504   0.506   0.533   0.566   0.583   0.568   0.592   0.603   0.614   0.587   0.591   0.552   0.564   0.582   0.581   0.566   0.593   0.584   0.581   0.631   0.644   0.647   0.648   0.644   0.677   0.673   0.697   0.736   0.728   0.724   0.748   0.695   0.695   0.632   0.618   0.632   0.614   0.583   0.618   0.631   0.683   0.677   0.619   0.627   0.629   0.632   0.630   0.667   0.667   0.661   0.656   0.681   0.654   0.628   0.600   0.607   0.602   0.586   0.646   0.667   0.674   0.668   0.642   0.651   0.658   0.704   0.664   0.638   0.612   0.622   0.614   0.568   0.565   0.558   0.596   0.557   0.551   0.534   0.567   0.568   0.586   0.604   0.580   0.575   0.553   0.556   0.578   0.564   0.579   0.608   0.642   0.654   0.656   0.593   0.559   0.605   0.594   0.602   0.573   0.623   0.636   0.605   0.618   0.673   0.633   0.610   0.597   0.590   0.576   0.594   0.569   0.597   0.596   0.560   0.548   0.538   0.525   0.516   0.571   0.557   0.571   0.614   0.611   0.619   0.664   0.682   0.670   0.670   0.644   0.650   0.672   0.703   0.647   0.628   0.600   0.572   0.530   0.513   0.577   0.549   0.547   0.512   0.503   0.481   0.466   0.523   0.529   0.544   0.575
   149.80    0.490   0.563   0.552   0.571   0.619   0.666   0.653   0.635   0.622   0.663   0.618   0.624   0.575   0.506   0.514   0.507   0.491   0.521   0.509   0.517   0.563   0.605   0.570   0.576   0.621   0.636   0.587   0.565   0.532   0.555   0.530   0.532   0.546   0.505   0.554   0.517   0.509   0.525   0.475   0.494   0.501   0.504   0.495   0.509   0.503   0.520   0.516   0.547   0.566   0.580   0.595   0.620   0.606   0.636   0.606   0.554   0.562   0.567   0.561   0.572   0.591   0.583   0.583   0.562   0.597   0.615   0.619   0.689   0.715   0.682   0.714   0.705   0.699   0.713   0.691   0.683   0.674   0.632   0.607   0.579   0.605   0.572   0.605   0.589   0.653   0.649   0.638   0.651   0.644   0.650   0.675   0.664   0.700   0.659   0.638   0.659   0.604   0.609   0.587   0.635   0.611   0.625   0.632   0.656   0.628   0.659   0.678   0.663   0.680   0.658   0.690   0.645   0.611   0.657   0.618   0.582   0.574   0.583   0.608   0.542   0.554   0.521   0.568   0.588   0.612   0.616   0.583   0.600   0.586   0.599   0.580   0.578   0.590   0.584   0.610   0.645   0.626   0.610   0.586   0.572   0.606   0.613   0.597   0.646   0.619   0.633   0.609   0.644   0.661   0.696   0.647   0.597   0.621   0.610   0.614   0.606   0.622   0.567   0.584   0.633   0.570   0.548   0.541   0.578   0.557   0.636   0.667   0.669   0.683   0.690   0.701   0.712   0.682   0.616   0.627   0.676   0.654   0.576   0.575   0.564   0.514   0.529   0.544   0.540   0.516   0.505   0.514   0.471   0.519   0.541   0.549   0.555   0.594
   140.50    0.516   0.563   0.575   0.618   0.632   0.609   0.651   0.639   0.623   0.630   0.587   0.577   0.530   0.508   0.508   0.513   0.538   0.505   0.458   0.462   0.522   0.578   0.578   0.571   0.659   0.640   0.605   0.559   0.540   0.532   0.523   0.522   0.527   0.527   0.557   0.591   0.593   0.558   0.497   0.473   0.520   0.512   0.500   0.521   0.519   0.529   0.515   0.545   0.592   0.589   0.610   0.590   0.591   0.617   0.621   0.600   0.574   0.565   0.574   0.602   0.598   0.582   0.574   0.569   0.594   0.590   0.632   0.705   0.707   0.703   0.657   0.701   0.695   0.675   0.637   0.617   0.648   0.629   0.627   0.590   0.563   0.552   0.551   0.560   0.605   0.617   0.651   0.630   0.655   0.672   0.647   0.640   0.713   0.690   0.671   0.663   0.638   0.594   0.598   0.603   0.639   0.631   0.656   0.678   0.638   0.651   0.668   0.698   0.677   0.680   0.678   0.660   0.611   0.654   0.648   0.636   0.596   0.608   0.559   0.536   0.561   0.602   0.603   0.635   0.572   0.593   0.606   0.612   0.606   0.562   0.566   0.580   0.572   0.578   0.622   0.614   0.584   0.564   0.598   0.595   0.594   0.604   0.610   0.602   0.599   0.617   0.631   0.627   0.677   0.696   0.716   0.627   0.628   0.634   0.677   0.652   0.648   0.608   0.605   0.581   0.569   0.585   0.522   0.536   0.600   0.612   0.621   0.643   0.661   0.666   0.737   0.728   0.686   0.633   0.620   0.622   0.624   0.585   0.569   0.527   0.559   0.547   0.573   0.573   0.527   0.509   0.529   0.517   0.524   0.560   0.590   0.599   0.592
   131.20    0.503   0.526   0.574   0.607   0.636   0.643   0.652   0.603   0.622   0.595   0.593   0.566   0.524   0.503   0.560   0.554   0.539   0.503   0.499   0.509   0.500   0.550   0.558   0.555   0.612   0.566   0.566   0.548   0.525   0.551   0.561   0.580   0.557   0.516   0.549   0.590   0.590   0.543   0.523   0.486   0.511   0.473   0.491   0.493   0.504   0.565   0.548   0.591   0.615   0.603   0.572   0.613   0.618   0.623   0.661   0.606   0.589   0.567   0.570   0.607   0.636   0.590   0.607   0.607   0.618   0.584   0.629   0.675   0.730   0.700   0.669   0.658   0.648   0.587   0.600   0.615   0.632   0.689   0.658   0.590   0.582   0.576   0.542   0.559   0.614   0.595   0.610   0.632   0.661   0.670   0.659   0.649   0.623   0.655   0.621   0.623   0.635   0.578   0.549   0.567   0.580   0.579   0.641   0.691   0.686   0.679   0.682   0.691   0.700   0.656   0.657   0.621   0.611   0.632   0.674   0.677   0.601   0.607   0.603   0.545   0.573   0.589   0.604   0.596   0.589   0.570   0.569   0.555   0.528   0.543   0.534   0.540   0.536   0.573   0.597   0.580   0.555   0.576   0.566   0.588   0.585   0.584   0.607   0.611   0.597   0.570   0.581   0.619   0.654   0.674   0.661   0.640   0.607   0.619   0.629   0.601   0.585   0.603   0.590   0.596   0.550   0.570   0.543   0.551   0.594   0.617   0.601   0.666   0.687   0.715   0.705   0.674   0.651   0.609   0.602   0.600   0.607   0.557   0.538   0.564   0.529   0.518   0.523   0.533   0.534   0.519   0.527   0.519   0.516   0.521   0.566   0.589   0.566
   121.90    0.524   0.551   0.590   0.617   0.617   0.613   0.609   0.618   0.578   0.604   0.587   0.551   0.550   0.543   0.536   0.548   0.524   0.512   0.529   0.468   0.536   0.545   0.545   0.577   0.592   0.595   0.515   0.518   0.520   0.513   0.575   0.600   0.541   0.526   0.566   0.585   0.579   0.549   0.527   0.521   0.494   0.488   0.479   0.493   0.522   0.540   0.579   0.585   0.587   0.586   0.613   0.592   0.590   0.629   0.615   0.590   0.591   0.552   0.530   0.608   0.563   0.612   0.620   0.571   0.581   0.576   0.608   0.646   0.721   0.727   0.712   0.634   0.609   0.600   0.565   0.621   0.645   0.673   0.603   0.594   0.617   0.583   0.559   0.597   0.622   0.618   0.628   0.625   0.624   0.624   0.666   0.657   0.642   0.629   0.631   0.606   0.623   0.578   0.546   0.579   0.631   0.619   0.661   0.679   0.705   0.678   0.689   0.703   0.675   0.724   0.659   0.633   0.617   0.635   0.673   0.665   0.598   0.589   0.542   0.578   0.621   0.600   0.607   0.590   0.587   0.560   0.558   0.556   0.551   0.549   0.544   0.520   0.530   0.531   0.526   0.571   0.577   0.586   0.572   0.577   0.614   0.588   0.572   0.575   0.557   0.554   0.562   0.579   0.628   0.614   0.657   0.586   0.559   0.551   0.602   0.566   0.575   0.577   0.587   0.580   0.556   0.599   0.534   0.551   0.632   0.623   0.634   0.664   0.631   0.637   0.665   0.639   0.647   0.608   0.566   0.604   0.579   0.545   0.528   0.561   0.561   0.535   0.495   0.493   0.538   0.544   0.525   0.500   0.491   0.498   0.502   0.544   0.536
   112.60    0.506   0.532   0.582   0.617   0.601   0.596   0.596   0.575   0.569   0.591   0.576   0.552   0.591   0.565   0.518   0.514   0.546   0.518   0.500   0.493   0.540   0.552   0.559   0.572   0.600   0.576   0.562   0.538   0.554   0.528   0.556   0.549   0.560   0.576   0.562   0.570   0.564   0.526   0.517   0.498   0.523   0.529   0.492   0.484   0.507   0.541   0.563   0.539   0.581   0.588   0.605   0.592   0.571   0.616   0.553   0.543   0.572   0.549   0.566   0.548   0.594   0.607   0.590   0.596   0.559   0.626   0.642   0.673   0.712   0.713   0.729   0.684   0.627   0.625   0.623   0.575   0.638   0.627   0.635   0.604   0.620   0.575   0.623   0.649   0.644   0.633   0.646   0.624   0.580   0.604   0.611   0.616   0.588   0.585   0.603   0.613   0.595   0.563   0.571   0.563   0.649   0.630   0.684   0.695   0.671   0.681   0.714   0.695   0.682   0.715   0.692   0.690   0.645   0.649   0.644   0.609   0.601   0.599   0.570   0.583   0.639   0.655   0.601   0.597   0.585   0.578   0.574   0.582   0.574   0.584   0.554   0.517   0.512   0.518   0.537   0.542   0.573   0.570   0.546   0.581   0.617   0.570   0.572   0.552   0.571   0.523   0.552   0.534   0.561   0.609   0.615   0.569   0.543   0.532   0.559   0.558   0.568   0.599   0.575   0.566   0.529   0.576   0.583   0.613   0.654   0.630   0.677   0.648   0.653   0.653   0.613   0.645   0.599   0.568   0.578   0.584   0.552   0.577   0.530   0.576   0.552   0.503   0.545   0.545   0.540   0.551   0.558   0.534   0.471   0.502   0.523   0.544   0.556
   103.30    0.519   0.541   0.610   0.622   0.626   0.567   0.556   0.601   0.579   0.609   0.569   0.554   0.543   0.535   0.537   0.572   0.549   0.538   0.529   0.523   0.551   0.570   0.579   0.572   0.574   0.571   0.568   0.580   0.536   0.527   0.515   0.523   0.527   0.576   0.580   0.528   0.546   0.545   0.554   0.546   0.521   0.540   0.512   0.481   0.502   0.571   0.551   0.521   0.566   0.532   0.555   0.573   0.519   0.572   0.549   0.579   0.553   0.533   0.531   0.560   0.583   0.597   0.559   0.585   0.585   0.604   0.652   0.673   0.699   0.716   0.732   0.715   0.655   0.616   0.588   0.577   0.603   0.620   0.685   0.632   0.608   0.605   0.657   0.673   0.614   0.622   0.606   0.665   0.597   0.575   0.596   0.579   0.539   0.570   0.621   0.600   0.592   0.570   0.551   0.584   0.623   0.603   0.640   0.660   0.676   0.665   0.722   0.680   0.676   0.721   0.699   0.671   0.611   0.625   0.606   0.612   0.579   0.588   0.616   0.560   0.624   0.659   0.634   0.612   0.575   0.603   0.581   0.532   0.558   0.540   0.503   0.486   0.504   0.531   0.548   0.570   0.565   0.593   0.585   0.564   0.576   0.576   0.584   0.551   0.578   0.539   0.540   0.554   0.574   0.579   0.604   0.538   0.536   0.533   0.566   0.576   0.559   0.564   0.539   0.538   0.563   0.589   0.613   0.646   0.634   0.665   0.668   0.668   0.646   0.613   0.610   0.610   0.611   0.571   0.554   0.555   0.546   0.541   0.539   0.570   0.582   0.565   0.551   0.572   0.558   0.548   0.514   0.505   0.526   0.528   0.535   0.555   0.584
    94.00    0.554   0.615   0.601   0.600   0.599   0.587   0.570   0.597   0.587   0.631   0.563   0.584   0.575   0.579   0.564   0.618   0.612   0.620   0.569   0.576   0.581   0.595   0.591   0.576   0.582   0.557   0.572   0.576   0.563   0.551   0.556   0.557   0.539   0.513   0.548   0.541   0.562   0.552   0.582   0.566   0.533   0.542   0.506   0.459   0.485   0.545   0.568   0.527   0.534   0.538   0.559   0.539   0.505   0.517   0.555   0.605   0.595   0.558   0.526   0.549   0.555   0.571   0.565   0.588   0.623   0.579   0.647   0.688   0.693   0.688   0.702   0.649   0.662   0.624   0.610   0.600   0.637   0.623   0.647   0.675   0.638   0.650   0.650   0.595   0.618   0.606   0.624   0.619   0.628   0.617   0.592   0.579   0.574   0.556   0.612   0.634   0.560   0.581   0.557   0.586   0.611   0.609   0.556   0.617   0.636   0.661   0.715   0.678   0.696   0.700   0.667   0.648   0.624   0.631   0.579   0.591   0.603   0.651   0.595   0.622   0.607   0.658   0.628   0.617   0.596   0.608   0.602   0.584   0.576   0.558   0.518   0.505   0.487   0.488   0.568   0.575   0.596   0.630   0.635   0.577   0.567   0.541   0.588   0.565   0.599   0.578   0.594   0.543   0.525   0.534   0.540   0.540   0.569   0.568   0.544   0.547   0.533   0.532   0.564   0.578   0.607   0.608   0.628   0.661   0.620   0.632   0.668   0.628   0.608   0.581   0.599   0.632   0.570   0.542   0.555   0.540   0.543   0.535   0.554   0.588   0.576   0.542   0.554   0.561   0.570   0.526   0.495   0.513   0.533   0.557   0.557   0.554   0.593
    84.70    0.575   0.604   0.622   0.616   0.606   0.607   0.596   0.582   0.605   0.631   0.606   0.570   0.590   0.596   0.604   0.609   0.577   0.598   0.572   0.570   0.577   0.626   0.600   0.605   0.588   0.553   0.589   0.562   0.584   0.535   0.503   0.529   0.526   0.518   0.533   0.526   0.517   0.566   0.556   0.534   0.512   0.538   0.503   0.515   0.539   0.544   0.554   0.564   0.591   0.601   0.605   0.584   0.579   0.554   0.564   0.572   0.596   0.582   0.581   0.567   0.557   0.569   0.580   0.609   0.666   0.655   0.693   0.693   0.646   0.645   0.652   0.647   0.638   0.617   0.614   0.626   0.604   0.636   0.643   0.653   0.681   0.630   0.606   0.572   0.603   0.610   0.567   0.591   0.598   0.645   0.610   0.587   0.576   0.557   0.598   0.620   0.605   0.563   0.556   0.585   0.573   0.603   0.564   0.573   0.652   0.658   0.710   0.709   0.672   0.624   0.638   0.621   0.631   0.617   0.586   0.558   0.586   0.579   0.585   0.560   0.585   0.607   0.583   0.629   0.614   0.635   0.647   0.621   0.584   0.606   0.569   0.526   0.542   0.567   0.546   0.560   0.566   0.578   0.609   0.628   0.618   0.583   0.574   0.582   0.603   0.568   0.577   0.563   0.545   0.535   0.526   0.527   0.602   0.580   0.588   0.563   0.550   0.538   0.581   0.619   0.597   0.618   0.632   0.665   0.647   0.644   0.626   0.625   0.611   0.592   0.585   0.574   0.553   0.573   0.572   0.588   0.561   0.489   0.544   0.556   0.574   0.537   0.509   0.538   0.561   0.530   0.519   0.505   0.518   0.541   0.541   0.596   0.596
    75.40    0.585   0.602   0.587   0.576   0.530   0.572   0.588   0.607   0.640   0.607   0.595   0.604   0.618   0.619   0.590   0.557   0.564   0.573   0.563   0.566   0.604   0.609   0.610   0.589   0.593   0.590   0.559   0.541   0.549   0.521   0.521   0.515   0.530   0.550   0.526   0.543   0.531   0.578   0.567   0.529   0.543   0.525   0.503   0.526   0.566   0.556   0.583   0.609   0.637   0.619   0.599   0.631   0.596   0.567   0.549   0.594   0.591   0.629   0.604   0.578   0.589   0.568   0.587   0.665   0.657   0.683   0.689   0.670   0.635   0.619   0.613   0.661   0.675   0.661   0.635   0.624   0.623   0.687   0.674   0.711   0.685   0.655   0.639   0.619   0.636   0.616   0.614   0.575   0.596   0.642   0.634   0.557   0.580   0.587   0.557   0.585   0.581   0.568   0.551   0.606   0.612   0.559   0.568   0.558   0.571   0.616   0.618   0.647   0.668   0.648   0.643   0.622   0.632   0.613   0.594   0.568   0.564   0.545   0.545   0.585   0.595   0.572   0.570   0.609   0.590   0.613   0.627   0.626   0.625   0.648   0.615   0.557   0.555   0.574   0.512   0.508   0.503   0.562   0.590   0.573   0.606   0.574   0.536   0.582   0.571   0.584   0.562   0.582   0.555   0.545   0.549   0.544   0.602   0.594   0.565   0.581   0.553   0.574   0.619   0.610   0.610   0.582   0.595   0.609   0.634   0.575   0.592   0.589   0.580   0.612   0.601   0.534   0.543   0.557   0.553   0.598   0.590   0.546   0.537   0.519   0.548   0.583   0.562   0.572   0.571   0.528   0.521   0.535   0.549   0.540   0.582   0.591   0.593
    66.10    0.559   0.566   0.564   0.582   0.574   0.569   0.584   0.613   0.643   0.593   0.575   0.577   0.578   0.581   0.549   0.529   0.534   0.562   0.535   0.518   0.507   0.564   0.604   0.598   0.595   0.585   0.580   0.530   0.537   0.483   0.496   0.467   0.501   0.558   0.558   0.573   0.572   0.596   0.557   0.563   0.544   0.534   0.540   0.537   0.602   0.561   0.593   0.585   0.594   0.606   0.625   0.615   0.620   0.589   0.585   0.620   0.602   0.629   0.603   0.606   0.614   0.606   0.626   0.658   0.656   0.689   0.687   0.679   0.629   0.610   0.573   0.625   0.658   0.682   0.651   0.620   0.630   0.653   0.649   0.700   0.694   0.632   0.638   0.583   0.640   0.596   0.633   0.641   0.591   0.627   0.586   0.573   0.578   0.589   0.564   0.549   0.534   0.542   0.566   0.596   0.599   0.568   0.573   0.548   0.550   0.561   0.572   0.594   0.614   0.653   0.647   0.614   0.581   0.575   0.593   0.571   0.543   0.514   0.546   0.567   0.575   0.621   0.616   0.606   0.571   0.588   0.614   0.604   0.650   0.646   0.588   0.578   0.511   0.512   0.485   0.502   0.463   0.532   0.519   0.567   0.568   0.566   0.590   0.573   0.581   0.593   0.588   0.561   0.571   0.549   0.542   0.535   0.573   0.610   0.610   0.583   0.559   0.587   0.603   0.598   0.639   0.581   0.583   0.598   0.580   0.565   0.536   0.550   0.570   0.581   0.575   0.580   0.598   0.550   0.572   0.598   0.607   0.555   0.509   0.493   0.531   0.532   0.557   0.592   0.568   0.530   0.521   0.525   0.539   0.516   0.553   0.562   0.575
    56.80    0.570   0.589   0.595   0.592   0.592   0.583   0.629   0.601   0.630   0.589   0.580   0.566   0.534   0.543   0.508   0.503   0.516   0.518   0.526   0.495   0.511   0.544   0.585   0.577   0.575   0.540   0.525   0.527   0.528   0.483   0.477   0.501   0.537   0.572   0.547   0.550   0.590   0.623   0.612   0.566   0.534   0.518   0.548   0.558   0.574   0.581   0.615   0.569   0.570   0.605   0.616   0.585   0.600   0.614   0.593   0.614   0.614   0.648   0.630   0.597   0.607   0.674   0.713   0.674   0.667   0.633   0.636   0.623   0.613   0.584   0.562   0.623   0.621   0.622   0.641   0.645   0.661   0.653   0.633   0.660   0.622   0.640   0.627   0.619   0.625   0.620   0.650   0.678   0.617   0.633   0.606   0.632   0.615   0.598   0.552   0.556   0.561   0.537   0.533   0.569   0.592   0.575   0.587   0.559   0.551   0.582   0.577   0.581   0.571   0.623   0.639   0.634   0.607   0.554   0.523   0.536   0.526   0.512   0.539   0.594   0.611   0.630   0.644   0.665   0.599   0.616   0.607   0.635   0.645   0.604   0.608   0.553   0.535   0.507   0.495   0.508   0.502   0.504   0.514   0.512   0.550   0.542   0.554   0.599   0.554   0.583   0.610   0.580   0.569   0.568   0.566   0.531   0.561   0.614   0.628   0.619   0.594   0.594   0.568   0.562   0.590   0.578   0.581   0.591   0.568   0.557   0.559   0.543   0.583   0.570   0.596   0.601   0.589   0.558   0.563   0.612   0.594   0.559   0.495   0.476   0.538   0.553   0.578   0.574   0.548   0.528   0.465   0.506   0.567   0.561   0.550   0.537   0.556
    47.50    0.592   0.578   0.597   0.625   0.605   0.626   0.623   0.595   0.602   0.594   0.564   0.537   0.547   0.518   0.477   0.495   0.517   0.484   0.502   0.499   0.524   0.544   0.546   0.587   0.573   0.537   0.525   0.530   0.514   0.523   0.511   0.509   0.545   0.551   0.514   0.534   0.541   0.557   0.544   0.532   0.505   0.523   0.577   0.563   0.575   0.623   0.549   0.542   0.576   0.596   0.594   0.626   0.630   0.576   0.560   0.606   0.600   0.611   0.606   0.575   0.579   0.628   0.677   0.690   0.702   0.652   0.638   0.617   0.583   0.593   0.615   0.652   0.624   0.653   0.693   0.658   0.662   0.633   0.641   0.632   0.650   0.645   0.637   0.649   0.654   0.670   0.677   0.651   0.651   0.628   0.617   0.591   0.608   0.542   0.559   0.553   0.554   0.524   0.536   0.566   0.584   0.568   0.618   0.594   0.575   0.576   0.545   0.577   0.583   0.625   0.564   0.595   0.576   0.569   0.550   0.544   0.537   0.539   0.540   0.591   0.644   0.679   0.671   0.668   0.633   0.648   0.586   0.578   0.613   0.602   0.594   0.564   0.562   0.558   0.523   0.489   0.508   0.533   0.530   0.526   0.529   0.540   0.539   0.562   0.575   0.560   0.600   0.568   0.544   0.568   0.550   0.578   0.571   0.620   0.615   0.604   0.594   0.547   0.580   0.561   0.545   0.596   0.590   0.535   0.537   0.531   0.559   0.567   0.593   0.600   0.604   0.616   0.591   0.564   0.534   0.589   0.601   0.564   0.492   0.509   0.541   0.535   0.588   0.609   0.563   0.532   0.487   0.492   0.539   0.550   0.535   0.575   0.542
    38.20    0.577   0.597   0.589   0.601   0.573   0.599   0.610   0.628   0.538   0.553   0.576   0.596   0.556   0.518   0.514   0.514   0.560   0.501   0.488   0.457   0.499   0.515   0.525   0.553   0.587   0.583   0.571   0.540   0.548   0.543   0.517   0.496   0.529   0.532   0.522   0.522   0.521   0.530   0.488   0.511   0.544   0.525   0.591   0.592   0.578   0.598   0.597   0.583   0.596   0.606   0.630   0.646   0.667   0.629   0.611   0.599   0.563   0.625   0.600   0.617   0.627   0.594   0.647   0.658   0.665   0.647   0.595   0.590   0.598   0.563   0.614   0.621   0.664   0.694   0.716   0.679   0.674   0.641   0.654   0.633   0.641   0.652   0.638   0.671   0.692   0.728   0.716   0.692   0.663   0.626   0.613   0.588   0.580   0.550   0.516   0.534   0.538   0.553   0.561   0.591   0.570   0.596   0.611   0.573   0.528   0.564   0.560   0.563   0.577   0.568   0.579   0.569   0.546   0.579   0.585   0.592   0.582   0.564   0.561   0.602   0.687   0.715   0.692   0.691   0.670   0.623   0.579   0.532   0.561   0.542   0.546   0.548   0.570   0.552   0.520   0.513   0.548   0.526   0.527   0.512   0.519   0.552   0.549   0.578   0.614   0.606   0.578   0.548   0.526   0.535   0.537   0.530   0.540   0.588   0.582   0.557   0.548   0.555   0.578   0.557   0.548   0.576   0.579   0.568   0.581   0.542   0.580   0.563   0.587   0.561   0.579   0.607   0.579   0.533   0.549   0.572   0.593   0.548   0.510   0.515   0.544   0.587   0.559   0.538   0.499   0.498   0.470   0.518   0.500   0.532   0.573   0.561   0.542
    28.90    0.570   0.551   0.557   0.557   0.561   0.603   0.584   0.603   0.551   0.591   0.579   0.558   0.562   0.516   0.527   0.542   0.533   0.517   0.514   0.494   0.506   0.543   0.533   0.544   0.571   0.587   0.581   0.558   0.555   0.516   0.500   0.474   0.517   0.511   0.526   0.524   0.536   0.532   0.488   0.526   0.545   0.546   0.563   0.579   0.604   0.588   0.555   0.557   0.560   0.595   0.648   0.677   0.650   0.620   0.595   0.568   0.581   0.606   0.604   0.584   0.567   0.604   0.620   0.624   0.613   0.587   0.607   0.594   0.581   0.580   0.612   0.656   0.702   0.708   0.704   0.663   0.700   0.656   0.648   0.645   0.695   0.692   0.654   0.675   0.685   0.743   0.750   0.711   0.700   0.658   0.577   0.518   0.539   0.508   0.534   0.565   0.570   0.547   0.560   0.562   0.597   0.560   0.567   0.567   0.573   0.556   0.586   0.572   0.544   0.585   0.565   0.575   0.579   0.625   0.622   0.634   0.647   0.627   0.609   0.651   0.684   0.714   0.712   0.738   0.674   0.607   0.560   0.555   0.517   0.488   0.540   0.557   0.551   0.533   0.508   0.510   0.518   0.514   0.509   0.497   0.503   0.515   0.551   0.555   0.573   0.563   0.549   0.543   0.519   0.528   0.542   0.504   0.537   0.527   0.565   0.543   0.532   0.548   0.573   0.586   0.565   0.615   0.625   0.640   0.576   0.577   0.608   0.552   0.578   0.564   0.574   0.589   0.604   0.543   0.533   0.560   0.552   0.526   0.506   0.554   0.537   0.558   0.543   0.556   0.523   0.487   0.497   0.498   0.499   0.532   0.586   0.537   0.520
    19.60    0.570   0.596   0.558   0.578   0.582   0.606   0.585   0.599   0.615   0.602   0.564   0.544   0.532   0.510   0.536   0.575   0.585   0.551   0.529   0.527   0.530   0.554   0.556   0.519   0.524   0.568   0.576   0.578   0.526   0.507   0.478   0.508   0.476   0.503   0.506   0.574   0.543   0.540   0.512   0.499   0.541   0.537   0.519   0.558   0.611   0.573   0.574   0.572   0.570   0.568   0.634   0.650   0.637   0.616   0.616   0.579   0.567   0.590   0.568   0.561   0.565   0.593   0.591   0.640   0.592   0.568   0.568   0.588   0.613   0.623   0.664   0.690   0.703   0.678   0.699   0.707   0.699   0.677   0.638   0.681   0.668   0.681   0.721   0.723   0.739   0.750   0.754   0.762   0.761   0.705   0.636   0.588   0.554   0.504   0.519   0.563   0.549   0.569   0.605   0.578   0.589   0.606   0.596   0.613   0.658   0.597   0.612   0.561   0.531   0.544   0.559   0.598   0.624   0.645   0.640   0.613   0.623   0.661   0.634   0.660   0.667   0.680   0.701   0.706   0.664   0.615   0.587   0.555   0.548   0.523   0.535   0.538   0.562   0.547   0.514   0.537   0.514   0.545   0.512   0.493   0.484   0.507   0.512   0.569   0.573   0.535   0.541   0.541   0.522   0.517   0.508   0.531   0.546   0.532   0.533   0.547   0.533   0.574   0.550   0.569   0.592   0.635   0.614   0.595   0.578   0.610   0.619   0.578   0.570   0.551   0.530   0.575   0.551   0.607   0.574   0.530   0.511   0.575   0.544   0.542   0.533   0.524   0.514   0.516   0.518   0.507   0.534   0.556   0.568   0.573   0.576   0.541   0.541
    10.30    0.561   0.585   0.568   0.592   0.597   0.623   0.609   0.604   0.596   0.618   0.569   0.577   0.564   0.515   0.564   0.588   0.597   0.569   0.543   0.603   0.580   0.586   0.555   0.562   0.583   0.547   0.568   0.543   0.506   0.499   0.482   0.484   0.507   0.543   0.522   0.533   0.600   0.539   0.508   0.521   0.529   0.510   0.537   0.543   0.566   0.594   0.568   0.603   0.567   0.587   0.621   0.637   0.594   0.631   0.640   0.606   0.598   0.562   0.588   0.606   0.572   0.578   0.605   0.619   0.635   0.618   0.627   0.641   0.685   0.691   0.699   0.692   0.722   0.661   0.712   0.729   0.681   0.617   0.625   0.664   0.667   0.687   0.689   0.733   0.783   0.788   0.817   0.762   0.786   0.731   0.677   0.668   0.584   0.570   0.537   0.591   0.574   0.580   0.584   0.613   0.571   0.585   0.570   0.580   0.599   0.589   0.579   0.557   0.547   0.593   0.600   0.584   0.664   0.667   0.671   0.621   0.642   0.619   0.643   0.675   0.642   0.627   0.661   0.659   0.675   0.612   0.601   0.552   0.557   0.526   0.566   0.558   0.561   0.546   0.495   0.491   0.511   0.512   0.511   0.494   0.511   0.532   0.481   0.528   0.531   0.523   0.545   0.534   0.550   0.516   0.525   0.542   0.572   0.538   0.531   0.521   0.537   0.528   0.542   0.538   0.589   0.629   0.636   0.581   0.603   0.622   0.617   0.635   0.558   0.535   0.542   0.559   0.568   0.588   0.558   0.543   0.526   0.547   0.563   0.551   0.530   0.516   0.498   0.541   0.494   0.508   0.482   0.512   0.551   0.602   0.586   0.577   0.577
     1.00    0.573   0.585   0.521   0.580   0.638   0.581   0.608   0.569   0.589   0.568   0.559   0.585   0.573   0.599   0.568   0.580   0.603   0.592   0.582   0.580   0.593   0.545   0.582   0.590   0.590   0.564   0.538   0.555   0.523   0.511   0.496   0.510   0.501   0.539   0.534   0.554   0.589   0.566   0.529   0.546   0.504   0.547   0.528   0.575   0.573   0.550   0.552   0.590   0.562   0.560   0.588   0.585   0.583   0.611   0.609   0.618   0.564   0.591   0.599   0.573   0.594   0.613   0.599   0.636   0.645   0.643   0.657   0.664   0.718   0.689   0.690   0.678   0.691   0.657   0.703   0.692   0.646   0.634   0.657   0.698   0.662   0.711   0.723   0.738   0.775   0.795   0.775   0.777   0.727   0.753   0.703   0.655   0.639   0.572   0.540   0.591   0.602   0.598   0.578   0.576   0.589   0.620   0.598   0.618   0.595   0.576   0.546   0.558   0.576   0.596   0.587   0.613   0.600   0.633   0.617   0.642   0.673   0.650   0.661   0.634   0.618   0.606   0.637   0.651   0.632   0.594   0.560   0.585   0.563   0.553   0.538   0.494   0.533   0.531   0.484   0.509   0.497   0.486   0.497   0.501   0.533   0.554   0.507   0.529   0.565   0.534   0.564   0.552   0.544   0.541   0.556   0.541   0.589   0.542   0.545   0.518   0.540   0.516   0.527   0.573   0.582   0.625   0.636   0.632   0.602   0.617   0.625   0.622   0.583   0.551   0.512   0.552   0.554   0.560   0.559   0.574   0.554   0.578   0.562   0.510   0.539   0.527   0.527   0.507   0.505   0.508   0.526   0.535   0.548   0.563   0.567   0.550   0.491

   Height   Standard deviation at grid points for the v component:
   354.40    0.474   0.477   0.497   0.468   0.494   0.496   0.474   0.474   0.458   0.469   0.495   0.480   0.488   0.500   0.507   0.516   0.506   0.477   0.442   0.449   0.443   0.408   0.436   0.439   0.436   0.472   0.492   0.488   0.473   0.482   0.475   0.466   0.462   0.461   0.458   0.476   0.455   0.446   0.452   0.442   0.430   0.465   0.462   0.485   0.490   0.480   0.481   0.473   0.470   0.469   0.478   0.471   0.469   0.459   0.461   0.463   0.460   0.480   0.470   0.498   0.532   0.533   0.534   0.519   0.495   0.488   0.502   0.499   0.493   0.468   0.469   0.456   0.493   0.478   0.520   0.511   0.506   0.482   0.483   0.488   0.438   0.458   0.437   0.431   0.443   0.461   0.488   0.477   0.477   0.477   0.459   0.448   0.449   0.409   0.398   0.412   0.429   0.442   0.431   0.457   0.464   0.471   0.467   0.447   0.460   0.441   0.434   0.451   0.468   0.465   0.485   0.467   0.464   0.462   0.444   0.463   0.462   0.449   0.440   0.445   0.435   0.428   0.430   0.403   0.431   0.449   0.447   0.431   0.434   0.443   0.448   0.439   0.434   0.478   0.496   0.511   0.491   0.479   0.467   0.444   0.466   0.475   0.466   0.506   0.485   0.501   0.531   0.548   0.521   0.488   0.496   0.517   0.526   0.517   0.493   0.500   0.490   0.476   0.498   0.482   0.512   0.484   0.484   0.474   0.478   0.469   0.467   0.442   0.448   0.450   0.431   0.414   0.452   0.433   0.432   0.434   0.437   0.438   0.443   0.440   0.455   0.452   0.468   0.451   0.453   0.461   0.438   0.432   0.424   0.421   0.431   0.432   0.462
   345.10    0.466   0.460   0.442   0.445   0.481   0.491   0.468   0.447   0.452   0.468   0.471   0.473   0.487   0.477   0.499   0.476   0.483   0.464   0.433   0.450   0.434   0.430   0.414   0.424   0.434   0.459   0.480   0.490   0.496   0.488   0.474   0.474   0.493   0.488   0.457   0.457   0.467   0.414   0.454   0.446   0.450   0.491   0.483   0.477   0.491   0.484   0.472   0.462   0.456   0.484   0.482   0.456   0.476   0.473   0.449   0.464   0.459   0.454   0.479   0.507   0.510   0.499   0.517   0.547   0.537   0.492   0.485   0.499   0.482   0.462   0.462   0.480   0.476   0.480   0.482   0.492   0.486   0.489   0.482   0.482   0.463   0.423   0.432   0.426   0.447   0.462   0.480   0.495   0.488   0.476   0.448   0.455   0.426   0.401   0.411   0.429   0.446   0.456   0.438   0.453   0.466   0.469   0.458   0.482   0.446   0.457   0.434   0.463   0.467   0.463   0.478   0.477   0.478   0.456   0.458   0.469   0.459   0.434   0.444   0.446   0.427   0.416   0.418   0.413   0.429   0.447   0.456   0.456   0.457   0.450   0.434   0.428   0.457   0.472   0.475   0.492   0.483   0.482   0.469   0.460   0.463   0.475   0.483   0.492   0.492   0.506   0.528   0.536   0.493   0.516   0.522   0.529   0.528   0.541   0.497   0.496   0.478   0.463   0.483   0.483   0.497   0.479   0.494   0.493   0.504   0.475   0.461   0.437   0.431   0.447   0.437   0.425   0.446   0.457   0.458   0.454   0.450   0.424   0.428   0.447   0.454   0.472   0.470   0.437   0.444   0.452   0.454   0.452   0.444   0.437   0.420   0.444   0.459
   335.80    0.462   0.450   0.428   0.459   0.441   0.467   0.463   0.447   0.437   0.440   0.435   0.448   0.452   0.468   0.467   0.464   0.467   0.470   0.464   0.451   0.445   0.437   0.413   0.444   0.448   0.459   0.479   0.474   0.477   0.490   0.502   0.483   0.497   0.476   0.467   0.468   0.450   0.447   0.463   0.454   0.460   0.493   0.470   0.461   0.485   0.496   0.482   0.473   0.482   0.457   0.460   0.466   0.455   0.470   0.461   0.452   0.449   0.421   0.463   0.504   0.500   0.516   0.544   0.519   0.540   0.507   0.492   0.462   0.460   0.451   0.478   0.485   0.490   0.470   0.489   0.506   0.485   0.500   0.485   0.478   0.469   0.434   0.417   0.415   0.445   0.456   0.461   0.469   0.466   0.460   0.460   0.433   0.426   0.391   0.417   0.433   0.457   0.443   0.459   0.469   0.479   0.438   0.457   0.481   0.457   0.480   0.479   0.468   0.454   0.469   0.490   0.463   0.462   0.466   0.476   0.459   0.460   0.438   0.435   0.439   0.412   0.426   0.433   0.443   0.418   0.428   0.455   0.455   0.448   0.465   0.447   0.448   0.454   0.460   0.459   0.468   0.481   0.478   0.445   0.444   0.449   0.462   0.463   0.468   0.492   0.490   0.509   0.519   0.495   0.530   0.548   0.511   0.525   0.494   0.488   0.504   0.471   0.472   0.479   0.472   0.473   0.481   0.480   0.487   0.492   0.449   0.456   0.436   0.434   0.441   0.439   0.452   0.455   0.452   0.441   0.425   0.446   0.435   0.440   0.456   0.454   0.464   0.445   0.442   0.445   0.456   0.462   0.459   0.458   0.436   0.420   0.449   0.452
   326.50    0.470   0.432   0.440   0.458   0.460   0.473   0.457   0.452   0.446   0.418   0.434   0.442   0.437   0.448   0.485   0.471   0.480   0.488   0.449   0.450   0.465   0.439   0.432   0.439   0.432   0.461   0.461   0.485   0.490   0.460   0.482   0.511   0.507   0.487   0.460   0.454   0.467   0.461   0.452   0.433   0.474   0.503   0.479   0.486   0.468   0.494   0.498   0.489   0.470   0.449   0.449   0.452   0.465   0.456   0.443   0.467   0.465   0.419   0.441   0.473   0.511   0.525   0.503   0.507   0.503   0.510   0.497   0.484   0.479   0.490   0.459   0.463   0.468   0.474   0.478   0.490   0.507   0.480   0.504   0.478   0.482   0.474   0.450   0.444   0.440   0.431   0.442   0.460   0.463   0.460   0.434   0.439   0.451   0.409   0.426   0.434   0.454   0.463   0.472   0.481   0.463   0.455   0.428   0.436   0.452   0.479   0.465   0.490   0.463   0.455   0.458   0.469   0.495   0.500   0.488   0.471   0.456   0.434   0.451   0.436   0.429   0.431   0.432   0.432   0.431   0.416   0.425   0.410   0.436   0.435   0.444   0.455   0.443   0.444   0.464   0.478   0.476   0.447   0.457   0.466   0.469   0.478   0.454   0.473   0.497   0.522   0.538   0.517   0.515   0.525   0.516   0.525   0.495   0.501   0.476   0.490   0.463   0.477   0.469   0.463   0.462   0.476   0.463   0.470   0.456   0.432   0.441   0.443   0.448   0.435   0.434   0.454   0.443   0.443   0.464   0.443   0.461   0.460   0.468   0.461   0.453   0.472   0.458   0.456   0.453   0.475   0.447   0.455   0.450   0.439   0.439   0.446   0.457
[...]
   103.30    0.284   0.278   0.269   0.277   0.279   0.277   0.277   0.282   0.276   0.276   0.285   0.295   0.288   0.282   0.284   0.287   0.278   0.276   0.269   0.278   0.281   0.275   0.275   0.282   0.279   0.291   0.286   0.283   0.288   0.292   0.293   0.278   0.286   0.276   0.276   0.277   0.274   0.273   0.283   0.289   0.285   0.302   0.309   0.293   0.280   0.290   0.283   0.276   0.274   0.275   0.276   0.280   0.286   0.278   0.267   0.277   0.284   0.277   0.276   0.283   0.282   0.274   0.278   0.283   0.289   0.287   0.285   0.285   0.286   0.279   0.278   0.272   0.275   0.284   0.284   0.277   0.273   0.295   0.293   0.293   0.295   0.296   0.283   0.279   0.282   0.282   0.290   0.288   0.288   0.291   0.288   0.298   0.301   0.294   0.287   0.286   0.281   0.282   0.296   0.303   0.303   0.298   0.291   0.289   0.294   0.290   0.292   0.289   0.286   0.283   0.276   0.285   0.283   0.280   0.279   0.279   0.284   0.288   0.285   0.292   0.288   0.286   0.273   0.291   0.281   0.279   0.295   0.293   0.290   0.290   0.292   0.298   0.296   0.284   0.292   0.294   0.292   0.300   0.287   0.282   0.273   0.279   0.284   0.279   0.279   0.286   0.281   0.273   0.271   0.281   0.281   0.285   0.287   0.283   0.280   0.281   0.279   0.267   0.271   0.276   0.293   0.293   0.294   0.291   0.285   0.287   0.295   0.299   0.289   0.281   0.281   0.302   0.286   0.282   0.290   0.287   0.296   0.291   0.285   0.285   0.280   0.287   0.296   0.283   0.292   0.286   0.277   0.287   0.293   0.292   0.296   0.278   0.275
    94.00    0.283   0.277   0.268   0.279   0.282   0.284   0.282   0.278   0.278   0.273   0.289   0.285   0.282   0.290   0.298   0.290   0.287   0.283   0.279   0.277   0.276   0.275   0.272   0.275   0.281   0.286   0.280   0.272   0.271   0.279   0.281   0.271   0.283   0.285   0.282   0.280   0.274   0.280   0.294   0.293   0.294   0.303   0.300   0.295   0.279   0.288   0.280   0.278   0.284   0.279   0.281   0.280   0.283   0.288   0.275   0.280   0.285   0.278   0.278   0.281   0.279   0.284   0.279   0.279   0.286   0.288   0.279   0.278   0.285   0.287   0.282   0.274   0.277   0.273   0.286   0.278   0.291   0.296   0.290   0.294   0.300   0.298   0.276   0.282   0.284   0.285   0.287   0.289   0.280   0.283   0.274   0.292   0.288   0.285   0.286   0.280   0.277   0.282   0.289   0.294   0.292   0.291   0.283   0.294   0.295   0.293   0.288   0.284   0.279   0.284   0.288   0.280   0.283   0.281   0.276   0.280   0.282   0.281   0.290   0.290   0.289   0.278   0.286   0.282   0.281   0.287   0.291   0.294   0.294   0.292   0.288   0.288   0.286   0.286   0.291   0.293   0.296   0.295   0.302   0.297   0.285   0.283   0.282   0.282   0.285   0.279   0.279   0.279   0.280   0.285   0.296   0.282   0.280   0.284   0.280   0.279   0.281   0.283   0.281   0.283   0.293   0.292   0.284   0.287   0.300   0.286   0.304   0.290   0.287   0.287   0.296   0.291   0.289   0.285   0.284   0.288   0.297   0.288   0.284   0.287   0.290   0.292   0.293   0.292   0.289   0.301   0.302   0.294   0.283   0.286   0.289   0.279   0.284
    84.70    0.272   0.270   0.273   0.275   0.282   0.277   0.278   0.279   0.269   0.279   0.289   0.289   0.291   0.287   0.281   0.281   0.287   0.273   0.276   0.272   0.281   0.274   0.267   0.276   0.275   0.280   0.281   0.290   0.283   0.275   0.281   0.280   0.278   0.285   0.282   0.290   0.287   0.282   0.286   0.287   0.287   0.298   0.295   0.289   0.290   0.292   0.286   0.285   0.279   0.281   0.280   0.285   0.285   0.279   0.280   0.279   0.278   0.268   0.272   0.280   0.287   0.287   0.282   0.280   0.284   0.285   0.280   0.278   0.281   0.284   0.286   0.277   0.284   0.267   0.280   0.284   0.295   0.302   0.297   0.297   0.299   0.302   0.294   0.285   0.284   0.302   0.287   0.292   0.281   0.271   0.261   0.279   0.277   0.277   0.285   0.291   0.282   0.282   0.288   0.295   0.292   0.293   0.289   0.287   0.296   0.291   0.281   0.278   0.270   0.284   0.280   0.279   0.282   0.284   0.280   0.274   0.274   0.277   0.287   0.293   0.295   0.280   0.280   0.284   0.281   0.279   0.290   0.303   0.295   0.288   0.287   0.283   0.292   0.298   0.291   0.292   0.299   0.298   0.305   0.293   0.289   0.281   0.282   0.278   0.278   0.290   0.280   0.281   0.281   0.292   0.283   0.287   0.277   0.284   0.285   0.289   0.282   0.289   0.287   0.284   0.292   0.286   0.291   0.288   0.289   0.290   0.297   0.299   0.282   0.289   0.291   0.285   0.286   0.281   0.279   0.283   0.280   0.290   0.291   0.280   0.295   0.289   0.292   0.290   0.291   0.294   0.299   0.294   0.287   0.289   0.283   0.277   0.287
    75.40    0.276   0.272   0.275   0.282   0.283   0.288   0.284   0.279   0.279   0.292   0.286   0.290   0.281   0.293   0.276   0.277   0.285   0.269   0.273   0.272   0.273   0.275   0.268   0.266   0.282   0.277   0.286   0.293   0.289   0.285   0.281   0.289   0.281   0.289   0.298   0.291   0.289   0.290   0.282   0.279   0.282   0.291   0.295   0.296   0.292   0.282   0.290   0.293   0.290   0.284   0.272   0.272   0.271   0.274   0.275   0.269   0.274   0.279   0.268   0.276   0.282   0.288   0.282   0.277   0.272   0.270   0.291   0.284   0.278   0.279   0.276   0.281   0.282   0.274   0.283   0.285   0.297   0.301   0.299   0.299   0.298   0.303   0.308   0.295   0.293   0.295   0.291   0.286   0.278   0.270   0.270   0.279   0.285   0.290   0.280   0.282   0.283   0.286   0.285   0.289   0.282   0.271   0.289   0.295   0.287   0.295   0.289   0.289   0.280   0.284   0.287   0.279   0.279   0.289   0.284   0.273   0.273   0.290   0.293   0.290   0.285   0.285   0.286   0.293   0.291   0.292   0.290   0.297   0.295   0.296   0.295   0.289   0.285   0.291   0.291   0.297   0.300   0.298   0.295   0.284   0.295   0.298   0.287   0.278   0.279   0.278   0.292   0.299   0.284   0.282   0.275   0.283   0.285   0.284   0.280   0.285   0.284   0.286   0.283   0.296   0.287   0.290   0.296   0.298   0.287   0.290   0.297   0.291   0.289   0.293   0.298   0.283   0.277   0.279   0.276   0.278   0.278   0.279   0.282   0.285   0.294   0.290   0.293   0.305   0.296   0.299   0.297   0.291   0.289   0.284   0.288   0.279   0.278
    66.10    0.275   0.288   0.290   0.288   0.293   0.293   0.283   0.294   0.286   0.281   0.289   0.286   0.275   0.278   0.280   0.283   0.278   0.276   0.271   0.269   0.270   0.275   0.276   0.280   0.283   0.286   0.285   0.291   0.287   0.287   0.287   0.293   0.290   0.281   0.285   0.286   0.289   0.290   0.280   0.281   0.290   0.291   0.294   0.296   0.289   0.283   0.289   0.286   0.279   0.283   0.278   0.270   0.273   0.270   0.267   0.275   0.284   0.277   0.274   0.276   0.276   0.284   0.276   0.277   0.284   0.282   0.292   0.296   0.289   0.285   0.273   0.273   0.282   0.286   0.284   0.279   0.288   0.292   0.285   0.295   0.293   0.293   0.303   0.291   0.289   0.285   0.291   0.287   0.276   0.280   0.267   0.264   0.280   0.283   0.277   0.273   0.278   0.289   0.275   0.276   0.282   0.278   0.288   0.296   0.288   0.295   0.297   0.290   0.293   0.294   0.289   0.285   0.291   0.288   0.284   0.293   0.293   0.295   0.291   0.288   0.285   0.272   0.281   0.284   0.291   0.305   0.299   0.288   0.294   0.292   0.291   0.298   0.293   0.286   0.296   0.304   0.303   0.294   0.286   0.291   0.292   0.287   0.288   0.278   0.280   0.286   0.293   0.293   0.290   0.282   0.282   0.281   0.282   0.273   0.274   0.270   0.286   0.281   0.283   0.287   0.298   0.303   0.298   0.287   0.283   0.286   0.300   0.293   0.295   0.299   0.286   0.292   0.288   0.282   0.290   0.290   0.280   0.279   0.283   0.288   0.287   0.286   0.296   0.305   0.301   0.299   0.293   0.292   0.288   0.287   0.288   0.285   0.279
    56.80    0.275   0.279   0.294   0.293   0.295   0.289   0.291   0.291   0.279   0.290   0.286   0.284   0.279   0.278   0.281   0.283   0.264   0.269   0.263   0.274   0.274   0.273   0.280   0.280   0.279   0.286   0.288   0.288   0.295   0.293   0.294   0.300   0.284   0.273   0.283   0.284   0.286   0.295   0.292   0.287   0.282   0.287   0.295   0.292   0.279   0.279   0.277   0.286   0.286   0.282   0.277   0.278   0.283   0.269   0.283   0.289   0.284   0.280   0.291   0.283   0.289   0.282   0.280   0.284   0.284   0.286   0.288   0.298   0.298   0.285   0.278   0.282   0.279   0.285   0.288   0.296   0.281   0.289   0.294   0.284   0.287   0.292   0.299   0.295   0.287   0.286   0.281   0.280   0.278   0.280   0.268   0.265   0.277   0.285   0.283   0.270   0.285   0.289   0.293   0.276   0.284   0.284   0.282   0.293   0.281   0.289   0.292   0.304   0.298   0.294   0.294   0.302   0.304   0.294   0.301   0.292   0.295   0.300   0.291   0.296   0.298   0.289   0.291   0.290   0.298   0.306   0.302   0.296   0.286   0.285   0.294   0.299   0.296   0.293   0.299   0.296   0.291   0.287   0.288   0.290   0.290   0.290   0.283   0.278   0.275   0.289   0.290   0.289   0.294   0.284   0.280   0.280   0.285   0.280   0.275   0.279   0.294   0.294   0.280   0.294   0.295   0.292   0.299   0.290   0.287   0.282   0.293   0.294   0.296   0.292   0.291   0.302   0.292   0.300   0.289   0.276   0.274   0.273   0.277   0.286   0.277   0.286   0.287   0.296   0.296   0.297   0.292   0.286   0.280   0.283   0.290   0.285   0.271
    47.50    0.283   0.282   0.286   0.286   0.286   0.288   0.284   0.286   0.276   0.284   0.290   0.279   0.279   0.286   0.285   0.279   0.280   0.278   0.273   0.278   0.278   0.280   0.280   0.276   0.276   0.279   0.276   0.286   0.302   0.304   0.295   0.289   0.298   0.299   0.290   0.281   0.284   0.300   0.303   0.293   0.280   0.289   0.286   0.275   0.270   0.276   0.286   0.283   0.291   0.286   0.282   0.282   0.278   0.286   0.288   0.286   0.282   0.284   0.288   0.286   0.300   0.283   0.285   0.284   0.292   0.285   0.285   0.282   0.280   0.288   0.281   0.279   0.281   0.284   0.292   0.294   0.282   0.283   0.288   0.293   0.288   0.290   0.286   0.288   0.280   0.283   0.277   0.279   0.278   0.275   0.267   0.285   0.272   0.282   0.280   0.270   0.263   0.284   0.281   0.281   0.279   0.285   0.289   0.281   0.285   0.291   0.299   0.298   0.291   0.292   0.294   0.301   0.312   0.305   0.303   0.306   0.298   0.295   0.298   0.294   0.294   0.292   0.294   0.289   0.291   0.305   0.299   0.293   0.284   0.288   0.284   0.293   0.296   0.288   0.291   0.287   0.289   0.282   0.283   0.284   0.291   0.292   0.294   0.288   0.291   0.300   0.290   0.290   0.296   0.275   0.276   0.282   0.275   0.287   0.292   0.286   0.295   0.294   0.299   0.295   0.291   0.286   0.300   0.293   0.288   0.287   0.300   0.298   0.298   0.300   0.286   0.287   0.298   0.290   0.286   0.285   0.277   0.277   0.277   0.283   0.289   0.287   0.275   0.281   0.286   0.287   0.283   0.292   0.277   0.278   0.274   0.273   0.277
    38.20    0.285   0.281   0.287   0.283   0.298   0.296   0.287   0.282   0.283   0.288   0.283   0.283   0.283   0.282   0.277   0.278   0.277   0.275   0.287   0.279   0.271   0.269   0.281   0.275   0.279   0.288   0.280   0.283   0.297   0.302   0.299   0.289   0.290   0.284   0.286   0.279   0.276   0.293   0.294   0.287   0.282   0.285   0.283   0.270   0.277   0.286   0.292   0.292   0.288   0.284   0.278   0.272   0.282   0.289   0.289   0.287   0.284   0.289   0.285   0.285   0.292   0.285   0.283   0.285   0.286   0.287   0.288   0.282   0.286   0.288   0.274   0.283   0.275   0.274   0.282   0.283   0.272   0.283   0.283   0.289   0.282   0.278   0.276   0.278   0.283   0.282   0.282   0.286   0.276   0.275   0.269   0.271   0.266   0.267   0.271   0.273   0.276   0.283   0.273   0.267   0.274   0.270   0.276   0.278   0.282   0.293   0.291   0.283   0.277   0.287   0.305   0.298   0.297   0.307   0.296   0.300   0.301   0.302   0.297   0.290   0.291   0.294   0.281   0.291   0.304   0.300   0.292   0.297   0.286   0.289   0.286   0.290   0.292   0.291   0.291   0.293   0.292   0.279   0.282   0.294   0.295   0.291   0.292   0.284   0.294   0.296   0.287   0.288   0.279   0.273   0.280   0.280   0.279   0.278   0.287   0.290   0.291   0.295   0.290   0.293   0.291   0.295   0.302   0.301   0.288   0.293   0.295   0.294   0.302   0.291   0.291   0.293   0.287   0.293   0.294   0.284   0.285   0.278   0.281   0.277   0.281   0.278   0.275   0.287   0.286   0.284   0.280   0.284   0.283   0.268   0.276   0.276   0.275
    28.90    0.284   0.286   0.287   0.289   0.295   0.297   0.290   0.287   0.280   0.276   0.289   0.282   0.277   0.276   0.284   0.261   0.273   0.277   0.278   0.285   0.275   0.272   0.280   0.278   0.276   0.292   0.291   0.286   0.292   0.299   0.296   0.283   0.284   0.283   0.279   0.269   0.279   0.291   0.281   0.282   0.275   0.272   0.283   0.282   0.288   0.289   0.297   0.292   0.287   0.290   0.280   0.272   0.276   0.286   0.289   0.283   0.283   0.296   0.288   0.291   0.290   0.290   0.281   0.283   0.272   0.276   0.272   0.282   0.290   0.281   0.283   0.276   0.271   0.286   0.278   0.278   0.278   0.284   0.283   0.285   0.288   0.283   0.280   0.276   0.285   0.287   0.283   0.277   0.270   0.274   0.279   0.279   0.264   0.266   0.272   0.273   0.279   0.272   0.268   0.276   0.279   0.280   0.278   0.274   0.287   0.284   0.287   0.278   0.289   0.299   0.298   0.292   0.303   0.299   0.297   0.301   0.297   0.306   0.299   0.286   0.298   0.285   0.291   0.296   0.297   0.305   0.303   0.303   0.296   0.301   0.292   0.292   0.303   0.295   0.291   0.301   0.287   0.292   0.299   0.298   0.287   0.289   0.291   0.287   0.286   0.292   0.299   0.289   0.282   0.282   0.275   0.285   0.287   0.272   0.287   0.285   0.289   0.292   0.292   0.283   0.292   0.292   0.290   0.287   0.289   0.291   0.295   0.294   0.295   0.295   0.296   0.290   0.293   0.293   0.298   0.284   0.284   0.280   0.279   0.277   0.274   0.286   0.289   0.288   0.280   0.274   0.273   0.280   0.271   0.271   0.283   0.273   0.277
    19.60    0.293   0.290   0.294   0.295   0.295   0.293   0.289   0.285   0.279   0.288   0.293   0.291   0.282   0.278   0.282   0.280   0.277   0.272   0.280   0.283   0.278   0.283   0.283   0.282   0.280   0.290   0.297   0.299   0.301   0.303   0.306   0.298   0.285   0.283   0.266   0.261   0.272   0.290   0.282   0.284   0.277   0.279   0.280   0.283   0.282   0.288   0.283   0.286   0.287   0.288   0.285   0.289   0.290   0.293   0.288   0.287   0.292   0.298   0.300   0.293   0.295   0.291   0.282   0.277   0.279   0.275   0.277   0.277   0.272   0.283   0.274   0.280   0.285   0.284   0.286   0.271   0.284   0.277   0.274   0.277   0.286   0.275   0.277   0.288   0.290   0.290   0.280   0.273   0.272   0.266   0.275   0.275   0.274   0.271   0.272   0.270   0.276   0.267   0.272   0.281   0.292   0.289   0.282   0.285   0.289   0.278   0.280   0.280   0.286   0.287   0.287   0.285   0.295   0.295   0.301   0.303   0.304   0.300   0.297   0.298   0.286   0.288   0.295   0.296   0.299   0.294   0.297   0.308   0.292   0.295   0.306   0.297   0.292   0.299   0.305   0.298   0.299   0.289   0.293   0.290   0.286   0.284   0.282   0.284   0.279   0.294   0.294   0.282   0.282   0.284   0.284   0.285   0.285   0.281   0.279   0.289   0.288   0.285   0.288   0.283   0.279   0.282   0.282   0.288   0.290   0.287   0.293   0.290   0.301   0.300   0.297   0.300   0.305   0.303   0.294   0.289   0.294   0.284   0.278   0.274   0.278   0.285   0.281   0.280   0.289   0.282   0.278   0.278   0.272   0.269   0.268   0.272   0.282
    10.30    0.298   0.291   0.288   0.288   0.292   0.281   0.284   0.286   0.280   0.279   0.283   0.283   0.279   0.280   0.287   0.284   0.288   0.282   0.280   0.278   0.273   0.275   0.280   0.295   0.283   0.292   0.294   0.298   0.304   0.296   0.300   0.291   0.280   0.263   0.268   0.268   0.277   0.283   0.284   0.280   0.288   0.284   0.278   0.283   0.274   0.280   0.277   0.285   0.292   0.286   0.283   0.291   0.289   0.290   0.289   0.286   0.287   0.294   0.296   0.309   0.294   0.284   0.295   0.287   0.280   0.270   0.275   0.278   0.284   0.283   0.282   0.290   0.286   0.284   0.282   0.277   0.272   0.284   0.281   0.274   0.285   0.280   0.274   0.290   0.289   0.286   0.285   0.280   0.276   0.277   0.273   0.264   0.272   0.272   0.271   0.276   0.268   0.273   0.285   0.284   0.296   0.289   0.280   0.285   0.294   0.283   0.274   0.274   0.276   0.282   0.290   0.294   0.282   0.300   0.307   0.313   0.305   0.291   0.297   0.295   0.293   0.290   0.287   0.297   0.296   0.295   0.298   0.297   0.305   0.300   0.295   0.299   0.304   0.300   0.300   0.301   0.292   0.279   0.285   0.291   0.289   0.286   0.283   0.281   0.284   0.289   0.285   0.276   0.283   0.286   0.286   0.273   0.279   0.281   0.284   0.280   0.278   0.285   0.289   0.300   0.285   0.278   0.280   0.285   0.288   0.294   0.288   0.291   0.292   0.295   0.304   0.307   0.306   0.312   0.303   0.290   0.289   0.278   0.271   0.273   0.280   0.280   0.280   0.275   0.274   0.281   0.291   0.277   0.271   0.276   0.280   0.281   0.286
     1.00    0.284   0.283   0.277   0.278   0.284   0.283   0.280   0.279   0.278   0.283   0.288   0.280   0.288   0.287   0.283   0.272   0.280   0.277   0.276   0.271   0.271   0.274   0.287   0.282   0.287   0.291   0.293   0.297   0.296   0.289   0.286   0.283   0.276   0.269   0.262   0.278   0.282   0.279   0.284   0.276   0.271   0.274   0.280   0.276   0.282   0.278   0.276   0.292   0.275   0.284   0.278   0.278   0.284   0.289   0.285   0.294   0.284   0.288   0.291   0.288   0.288   0.292   0.286   0.292   0.277   0.268   0.274   0.269   0.282   0.288   0.282   0.288   0.284   0.287   0.277   0.276   0.278   0.286   0.281   0.284   0.283   0.289   0.276   0.285   0.292   0.286   0.283   0.272   0.270   0.280   0.282   0.279   0.276   0.274   0.270   0.270   0.273   0.277   0.281   0.286   0.293   0.289   0.281   0.287   0.290   0.290   0.276   0.277   0.277   0.289   0.294   0.293   0.293   0.306   0.305   0.309   0.302   0.295   0.290   0.291   0.284   0.287   0.291   0.288   0.300   0.302   0.301   0.302   0.301   0.306   0.304   0.299   0.292   0.299   0.293   0.293   0.283   0.288   0.287   0.282   0.289   0.283   0.281   0.272   0.279   0.281   0.276   0.285   0.279   0.276   0.283   0.276   0.278   0.281   0.283   0.281   0.289   0.288   0.281   0.287   0.297   0.289   0.289   0.293   0.285   0.288   0.284   0.284   0.288   0.292   0.305   0.299   0.301   0.303   0.307   0.293   0.289   0.286   0.279   0.274   0.278   0.276   0.280   0.276   0.277   0.288   0.289   0.284   0.287   0.291   0.285   0.278   0.281

   Mean standard deviation across all grid points:
      u component:    0.585 m/s
      v component:    0.460 m/s
      w component:    0.284 m/s


U-component (X) statistics from the interpolated hub point:

   Mean =   9.7063 m/s
   TI   =   6.3369 %


Processing complete.  2.15801E+05 CPU seconds used.
