
This summary file was generated by TurbSim (from OpenFAST-v3.5.3) on 19-Apr-2025 at 23:10:01.


Runtime Options:

 376932526  Random seed #1
    RANLUX  Type of random number generator
         F  Output binary HH turbulence parameters?
         F  Output formatted turbulence parameters?
         F  Output AeroDyn HH files?
         T  Output AeroDyn FF files?
         F  Output BLADED FF files?
         F  Output tower data?
         F  Output HAWC FF files?
         F  Output formatted FF files?
         T  Output coherent turbulence time step file?
 0 -  NONE  IEC turbulence models scaled to exact specified standard deviation


Turbine/Model Specifications:

        39  Vertical grid-point matrix dimension
       193  Horizontal grid-point matrix dimension
     0.250  Time step [seconds]
   900.000  Analysis time [seconds]
   900.000  Usable output time [seconds]
   177.700  Hub height [m]
   353.400  Grid height [m]
  1785.600  Grid width [m]
     0.000  Vertical flow angle [degrees]
     0.000  Horizontal flow angle [degrees]


Meteorological Boundary Conditions:

    IECKAI  IEC Kaimal spectral model
         1  IEC standard: IEC 61400-1 Ed. 3: 2005
     7.500  Percent turbulence intensity, IEC 61400-1 Ed. 3: 2005
       NTM  IEC Normal Turbulence Model
       N/A  IEC Extreme Turbulence Model (ETM) "c" parameter [m/s]
       USR  Wind profile type
    90.000  Reference height [m]
       N/A  Reference wind speed [m/s]
       N/A  Jet height [m]
       N/A  Power law exponent
     0.030  Surface roughness length [m]


Non-IEC Meteorological Boundary Conditions:

       N/A  Site latitude [degrees]
       N/A  Gradient Richardson number
       N/A  Friction or shear velocity [m/s]
       N/A  Mixing layer depth [m]
       N/A  Mean hub u'w' Reynolds stress
       N/A  Mean hub u'v' Reynolds stress
       N/A  Mean hub v'w' Reynolds stress


Spatial Coherence Models:

       IEC  u-component coherence model
       IEC  v-component coherence model
       IEC  w-component coherence model
(   12.000, 0.353E-03)  u-component coherence parameters
(   12.000, 0.353E-03)  v-component coherence parameters
(   12.000, 0.353E-03)  w-component coherence parameters
       N/A  Coherence exponent


User-Defined Profiles:

  Height   Wind Speed   Horizontal Angle
   (m)        (m/s)          (deg)      
  ------   ----------   ----------------
  353.40      10.00         318.19
  334.80      10.00         321.14
  316.20      10.00         324.10
  297.60      10.00         327.05
  279.00      10.00         330.00
  260.40      10.00         332.95
  241.80      10.00         335.90
  223.20      10.00         338.86
  204.60      10.00         341.81
  186.00      10.00         344.76
  167.40      10.00         347.71
  148.80      10.00         350.67
  130.20      10.00         353.62
  111.60      10.00         356.57
   93.00      10.00         359.52
   74.40      10.00           2.48
   55.80      10.00           5.43
   37.20      10.00           8.38
   18.60      10.00          11.33
    0.00      10.00          14.29


You have requested that the following file(s) be generated:

   /kfs3/scratch/agupta/Projects/RL_Incubator/FinalRuns_Veer/Seed4/./FFSim_Seed4/Cond00_v10.0_PL0.12_TI7.5/Seed_6/Low.bts (AeroDyn/TurbSim full-field wind file)


Turbulence Simulation Scaling Parameter Summary:

   Turbulence model used                            =  IEC Kaimal
   Turbulence characteristic                        =  User-specified
   IEC standard                                     =  IEC 61400-1 Ed. 3: 2005
   Mean wind speed at hub height                    =   10.000 m/s
   Characteristic value of standard deviation       =    0.750 m/s
   Turbulence scale                                 =   42.000 m
   u-component integral scale                       =  340.200 m
   Coherency scale                                  =  340.200 m
   Characteristic value of hub turbulence intensity =    7.500%
   Gradient Richardson number                       =    0.000

   Wind profile type                                =  Linear interpolation of user-defined profile
   Equivalent power law exponent (upper rotor disk) =    0.000
   Mean shear across rotor disk                     =    0.000 (m/s)/m
   Assumed rotor diameter                           =  353.400 m
   Surface roughness length                         =    0.030 m

   Nyquist frequency of turbulent wind field        =    2.000 Hz

   Number of time steps in the FFT                  =     3600
   Number of time steps output                      =     3600
   Number of points simulated                       =     7527


Mean Flow Angles:

   Vertical   =   0.0 degrees
   Horizontal =   0.0 degrees

Mean Wind Speed Profile:

   Height    Wind Speed   Horizontal Angle  Vertical Angle  U-comp (X)   V-comp (Y)   W-comp (Z)
     (m)        (m/s)         (degrees)       (degrees)       (m/s)        (m/s)        (m/s)   
   ------    ----------   ----------------  --------------  ----------   ----------   ----------
    354.4       10.00          318.19            0.00          7.45        -6.67         0.00
    345.1       10.00          319.51            0.00          7.60        -6.49         0.00
    335.8       10.00          320.98            0.00          7.77        -6.30         0.00
    326.5       10.00          322.46            0.00          7.93        -6.09         0.00
    317.2       10.00          323.94            0.00          8.08        -5.89         0.00
    307.9       10.00          325.41            0.00          8.23        -5.68         0.00
    298.6       10.00          326.89            0.00          8.38        -5.46         0.00
    289.3       10.00          328.37            0.00          8.51        -5.25         0.00
    280.0       10.00          329.84            0.00          8.65        -5.02         0.00
    270.7       10.00          331.32            0.00          8.77        -4.80         0.00
    261.4       10.00          332.79            0.00          8.89        -4.57         0.00
    252.1       10.00          334.27            0.00          9.01        -4.34         0.00
    242.8       10.00          335.75            0.00          9.12        -4.11         0.00
    233.5       10.00          337.22            0.00          9.22        -3.87         0.00
    224.2       10.00          338.70            0.00          9.32        -3.63         0.00
    214.9       10.00          340.17            0.00          9.41        -3.39         0.00
    205.6       10.00          341.65            0.00          9.49        -3.15         0.00
    196.3       10.00          343.13            0.00          9.57        -2.90         0.00
    187.0       10.00          344.60            0.00          9.64        -2.66         0.00
    177.7       10.00          346.08            0.00          9.71        -2.41         0.00
    168.4       10.00          347.56            0.00          9.77        -2.15         0.00
    159.1       10.00          349.03            0.00          9.82        -1.90         0.00
    149.8       10.00          350.51            0.00          9.86        -1.65         0.00
    140.5       10.00          351.98            0.00          9.90        -1.39         0.00
    131.2       10.00          353.46            0.00          9.93        -1.14         0.00
    121.9       10.00          354.94            0.00          9.96        -0.88         0.00
    112.6       10.00          356.41            0.00          9.98        -0.63         0.00
    103.3       10.00          357.89            0.00          9.99        -0.37         0.00
     94.0       10.00          359.37            0.00         10.00        -0.11         0.00
     84.7       10.00          360.84            0.00         10.00         0.15         0.00
     75.4       10.00          362.32            0.00          9.99         0.40         0.00
     66.1       10.00            3.79            0.00          9.98         0.66         0.00
     56.8       10.00            5.27            0.00          9.96         0.92         0.00
     47.5       10.00            6.75            0.00          9.93         1.17         0.00
     38.2       10.00            8.22            0.00          9.90         1.43         0.00
     28.9       10.00            9.70            0.00          9.86         1.68         0.00
     19.6       10.00           11.17            0.00          9.81         1.94         0.00
     10.3       10.00           12.65            0.00          9.76         2.19         0.00
      1.0       10.00           14.13            0.00          9.70         2.44         0.00


Harvested Random Seeds after Generation of the Random Numbers:

    377667225 K 1
            0 K 2


Hub-Height Simulated Turbulence Statistical Summary:

   Type of Wind        Min (m/s)   Mean (m/s)    Max (m/s)  Sigma (m/s)       TI (%)
   ----------------    ---------   ----------    ---------  -----------       ------
   Longitudinal (u)         7.60        10.00        12.42        0.781        7.811
   Lateral (v)             -2.00        -0.00         1.73        0.618        6.178
   Vertical (w)            -1.26        -0.00         1.18        0.352        3.519
   U component              7.29         9.71        12.13        0.780        8.040
   V component             -4.43        -2.41        -0.68        0.619        6.375
   W component             -1.26        -0.00         1.18        0.352        3.626
   Horizontal (U&V)         7.60        10.02        12.42        0.782        7.808
   Total                    7.60        10.03        12.43        0.782        7.803

                       Min Reynolds     Mean Reynolds    Max Reynolds    Correlation
   Product             Stress (m/s)^2   Stress (m/s)^2   Stress (m/s)^2  Coefficient
   ----------------    --------------   --------------   --------------  -----------
   u'w'                     -1.580             0.003             1.556         0.013
   u'v'                     -2.126             0.026             2.204         0.053
   v'w'                     -1.488            -0.003             0.928        -0.013


   Friction Velocity (Ustar)  =      0.059 m/s
   Maximum Instantaneous TKE  =      3.074 (m/s)^2
   Maximum Instantaneous CTKE =      1.218 (m/s)^2


Grid Point Variance Summary:

   Y-coord -892.80 -883.50 -874.20 -864.90 -855.60 -846.30 -837.00 -827.70 -818.40 -809.10 -799.80 -790.50 -781.20 -771.90 -762.60 -753.30 -744.00 -734.70 -725.40 -716.10 -706.80 -697.50 -688.20 -678.90 -669.60 -660.30 -651.00 -641.70 -632.40 -623.10 -613.80 -604.50 -595.20 -585.90 -576.60 -567.30 -558.00 -548.70 -539.40 -530.10 -520.80 -511.50 -502.20 -492.90 -483.60 -474.30 -465.00 -455.70 -446.40 -437.10 -427.80 -418.50 -409.20 -399.90 -390.60 -381.30 -372.00 -362.70 -353.40 -344.10 -334.80 -325.50 -316.20 -306.90 -297.60 -288.30 -279.00 -269.70 -260.40 -251.10 -241.80 -232.50 -223.20 -213.90 -204.60 -195.30 -186.00 -176.70 -167.40 -158.10 -148.80 -139.50 -130.20 -120.90 -111.60 -102.30  -93.00  -83.70  -74.40  -65.10  -55.80  -46.50  -37.20  -27.90  -18.60   -9.30    0.00    9.30   18.60   27.90   37.20   46.50   55.80   65.10   74.40   83.70   93.00  102.30  111.60  120.90  130.20  139.50  148.80  158.10  167.40  176.70  186.00  195.30  204.60  213.90  223.20  232.50  241.80  251.10  260.40  269.70  279.00  288.30  297.60  306.90  316.20  325.50  334.80  344.10  353.40  362.70  372.00  381.30  390.60  399.90  409.20  418.50  427.80  437.10  446.40  455.70  465.00  474.30  483.60  492.90  502.20  511.50  520.80  530.10  539.40  548.70  558.00  567.30  576.60  585.90  595.20  604.50  613.80  623.10  632.40  641.70  651.00  660.30  669.60  678.90  688.20  697.50  706.80  716.10  725.40  734.70  744.00  753.30  762.60  771.90  781.20  790.50  799.80  809.10  818.40  827.70  837.00  846.30  855.60  864.90  874.20  883.50  892.80

   Height   Standard deviation at grid points for the u component:
   354.40    0.729   0.655   0.724   0.701   0.757   0.816   0.768   0.795   0.774   0.779   0.748   0.730   0.660   0.701   0.692   0.722   0.639   0.662   0.622   0.617   0.595   0.601   0.614   0.617   0.632   0.644   0.655   0.637   0.660   0.718   0.725   0.693   0.683   0.706   0.741   0.728   0.667   0.704   0.665   0.607   0.580   0.620   0.636   0.619   0.629   0.710   0.706   0.779   0.754   0.795   0.811   0.823   0.839   0.848   0.843   0.873   0.864   0.773   0.768   0.745   0.748   0.717   0.730   0.769   0.768   0.826   0.791   0.823   0.832   0.828   0.786   0.738   0.764   0.773   0.764   0.726   0.755   0.792   0.828   0.840   0.773   0.719   0.724   0.725   0.732   0.749   0.735   0.786   0.788   0.843   0.768   0.761   0.775   0.731   0.727   0.727   0.669   0.683   0.715   0.763   0.775   0.784   0.796   0.771   0.776   0.716   0.715   0.697   0.725   0.749   0.753   0.742   0.698   0.712   0.734   0.750   0.732   0.717   0.686   0.704   0.662   0.659   0.662   0.633   0.644   0.686   0.676   0.665   0.686   0.679   0.649   0.602   0.630   0.651   0.632   0.682   0.675   0.761   0.798   0.722   0.729   0.718   0.747   0.729   0.736   0.694   0.684   0.781   0.766   0.776   0.734   0.755   0.767   0.720   0.651   0.669   0.625   0.575   0.606   0.630   0.628   0.643   0.669   0.680   0.685   0.699   0.747   0.692   0.683   0.687   0.673   0.668   0.643   0.611   0.651   0.629   0.592   0.609   0.610   0.649   0.725   0.785   0.728   0.731   0.744   0.747   0.738   0.795   0.833   0.786   0.798   0.767   0.722
   345.10    0.784   0.738   0.705   0.768   0.809   0.776   0.764   0.786   0.781   0.741   0.704   0.716   0.682   0.683   0.665   0.731   0.669   0.621   0.604   0.661   0.627   0.620   0.573   0.615   0.624   0.673   0.674   0.647   0.646   0.653   0.678   0.697   0.736   0.693   0.734   0.722   0.680   0.636   0.624   0.597   0.597   0.612   0.639   0.712   0.718   0.747   0.772   0.773   0.789   0.822   0.725   0.791   0.846   0.818   0.823   0.818   0.845   0.751   0.744   0.773   0.753   0.788   0.773   0.744   0.783   0.816   0.825   0.812   0.849   0.831   0.821   0.787   0.768   0.789   0.817   0.823   0.812   0.813   0.842   0.859   0.727   0.736   0.765   0.798   0.790   0.812   0.797   0.784   0.826   0.816   0.807   0.803   0.780   0.744   0.720   0.724   0.748   0.743   0.751   0.781   0.825   0.799   0.768   0.787   0.800   0.734   0.727   0.699   0.726   0.769   0.766   0.741   0.693   0.742   0.745   0.751   0.734   0.740   0.703   0.700   0.674   0.658   0.666   0.620   0.653   0.656   0.709   0.661   0.703   0.678   0.676   0.658   0.702   0.736   0.683   0.685   0.747   0.731   0.696   0.720   0.720   0.740   0.721   0.702   0.735   0.725   0.704   0.777   0.794   0.766   0.733   0.727   0.785   0.722   0.697   0.671   0.620   0.587   0.607   0.646   0.640   0.703   0.702   0.690   0.688   0.673   0.731   0.690   0.703   0.703   0.658   0.644   0.649   0.637   0.612   0.617   0.610   0.573   0.612   0.685   0.741   0.790   0.786   0.778   0.768   0.709   0.806   0.798   0.861   0.776   0.781   0.799   0.764
   335.80    0.735   0.741   0.672   0.736   0.789   0.773   0.781   0.778   0.764   0.673   0.729   0.697   0.709   0.727   0.703   0.730   0.712   0.635   0.589   0.611   0.619   0.627   0.587   0.588   0.651   0.652   0.691   0.603   0.624   0.616   0.658   0.684   0.703   0.697   0.713   0.701   0.665   0.650   0.638   0.609   0.568   0.644   0.636   0.696   0.755   0.778   0.783   0.832   0.789   0.790   0.773   0.734   0.804   0.796   0.780   0.809   0.800   0.743   0.728   0.757   0.736   0.772   0.750   0.720   0.799   0.810   0.815   0.820   0.824   0.803   0.790   0.761   0.810   0.841   0.822   0.836   0.841   0.839   0.863   0.843   0.768   0.777   0.761   0.755   0.822   0.864   0.866   0.868   0.908   0.869   0.763   0.775   0.766   0.787   0.755   0.755   0.775   0.802   0.772   0.807   0.770   0.758   0.780   0.801   0.803   0.775   0.757   0.750   0.705   0.760   0.744   0.779   0.722   0.691   0.725   0.760   0.747   0.750   0.727   0.714   0.746   0.698   0.725   0.683   0.704   0.714   0.728   0.718   0.731   0.673   0.671   0.687   0.709   0.665   0.712   0.756   0.720   0.752   0.745   0.719   0.701   0.695   0.687   0.681   0.738   0.711   0.743   0.742   0.753   0.750   0.756   0.730   0.776   0.733   0.706   0.671   0.621   0.596   0.641   0.671   0.696   0.696   0.699   0.683   0.686   0.696   0.695   0.707   0.722   0.770   0.703   0.715   0.641   0.669   0.669   0.584   0.603   0.580   0.655   0.650   0.757   0.783   0.801   0.822   0.791   0.811   0.839   0.872   0.855   0.772   0.732   0.782   0.748
   326.50    0.718   0.732   0.750   0.734   0.758   0.787   0.744   0.787   0.757   0.745   0.742   0.709   0.689   0.736   0.757   0.738   0.689   0.676   0.620   0.583   0.594   0.623   0.577   0.594   0.643   0.633   0.628   0.605   0.606   0.662   0.680   0.655   0.678   0.700   0.673   0.674   0.694   0.651   0.664   0.574   0.600   0.581   0.653   0.716   0.770   0.794   0.818   0.772   0.784   0.780   0.811   0.783   0.795   0.854   0.780   0.777   0.750   0.760   0.763   0.724   0.763   0.770   0.784   0.744   0.823   0.810   0.829   0.790   0.781   0.769   0.774   0.789   0.839   0.825   0.805   0.786   0.850   0.875   0.862   0.804   0.802   0.811   0.807   0.813   0.851   0.870   0.861   0.906   0.900   0.866   0.860   0.793   0.795   0.729   0.759   0.727   0.742   0.803   0.806   0.764   0.813   0.720   0.749   0.796   0.811   0.758   0.749   0.727   0.747   0.731   0.723   0.734   0.756   0.740   0.746   0.763   0.767   0.806   0.767   0.767   0.765   0.776   0.769   0.722   0.735   0.719   0.711   0.719   0.751   0.729   0.709   0.721   0.733   0.706   0.724   0.759   0.780   0.777   0.731   0.733   0.688   0.657   0.689   0.704   0.723   0.720   0.695   0.681   0.744   0.739   0.714   0.745   0.736   0.685   0.721   0.670   0.668   0.642   0.647   0.688   0.692   0.728   0.693   0.620   0.646   0.636   0.648   0.675   0.723   0.700   0.678   0.666   0.704   0.703   0.671   0.621   0.615   0.627   0.657   0.708   0.777   0.782   0.827   0.829   0.808   0.826   0.851   0.850   0.827   0.793   0.830   0.819   0.760
   317.20    0.732   0.724   0.697   0.674   0.692   0.744   0.731   0.721   0.739   0.770   0.777   0.701   0.695   0.754   0.715   0.711   0.706   0.704   0.645   0.597   0.598   0.640   0.571   0.584   0.642   0.691   0.656   0.645   0.583   0.631   0.626   0.669   0.679   0.664   0.653   0.695   0.703   0.691   0.604   0.576   0.627   0.618   0.639   0.692   0.719   0.771   0.816   0.812   0.810   0.803   0.862   0.817   0.811   0.824   0.767   0.801   0.757   0.737   0.788   0.771   0.753   0.732   0.766   0.775   0.782   0.832   0.821   0.806   0.808   0.815   0.741   0.794   0.839   0.839   0.818   0.831   0.830   0.849   0.789   0.760   0.785   0.803   0.797   0.807   0.823   0.826   0.844   0.892   0.909   0.853   0.805   0.794   0.792   0.735   0.715   0.707   0.763   0.788   0.783   0.790   0.817   0.765   0.751   0.768   0.777   0.766   0.733   0.711   0.740   0.765   0.716   0.707   0.714   0.754   0.787   0.754   0.779   0.750   0.737   0.757   0.757   0.751   0.745   0.728   0.750   0.757   0.767   0.783   0.775   0.773   0.781   0.761   0.737   0.781   0.762   0.804   0.835   0.795   0.766   0.747   0.694   0.677   0.677   0.653   0.636   0.649   0.709   0.710   0.705   0.741   0.722   0.703   0.699   0.648   0.676   0.681   0.659   0.643   0.652   0.682   0.688   0.680   0.685   0.664   0.620   0.643   0.693   0.680   0.666   0.690   0.656   0.659   0.678   0.748   0.670   0.644   0.647   0.668   0.675   0.751   0.764   0.813   0.807   0.834   0.811   0.770   0.813   0.848   0.855   0.776   0.827   0.784   0.759
   307.90    0.699   0.711   0.744   0.715   0.656   0.687   0.718   0.739   0.764   0.788   0.766   0.771   0.700   0.760   0.765   0.701   0.737   0.708   0.649   0.620   0.615   0.598   0.598   0.625   0.632   0.654   0.626   0.623   0.578   0.588   0.637   0.634   0.650   0.684   0.652   0.627   0.681   0.693   0.663   0.601   0.635   0.630   0.617   0.657   0.701   0.747   0.714   0.820   0.819   0.854   0.797   0.796   0.795   0.839   0.770   0.795   0.726   0.775   0.719   0.671   0.758   0.775   0.747   0.799   0.774   0.799   0.816   0.793   0.756   0.763   0.754   0.771   0.772   0.785   0.813   0.794   0.761   0.809   0.804   0.764   0.758   0.822   0.828   0.863   0.828   0.812   0.800   0.850   0.844   0.870   0.831   0.832   0.765   0.742   0.696   0.756   0.766   0.768   0.731   0.708   0.725   0.711   0.687   0.713   0.798   0.762   0.729   0.670   0.754   0.773   0.710   0.675   0.706   0.757   0.740   0.765   0.774   0.765   0.747   0.760   0.749   0.755   0.734   0.736   0.758   0.797   0.797   0.808   0.782   0.797   0.815   0.877   0.850   0.832   0.820   0.782   0.813   0.833   0.823   0.725   0.676   0.697   0.653   0.614   0.654   0.670   0.708   0.704   0.702   0.691   0.701   0.698   0.692   0.657   0.681   0.681   0.658   0.668   0.671   0.661   0.717   0.701   0.670   0.671   0.632   0.659   0.669   0.666   0.666   0.665   0.648   0.641   0.683   0.703   0.688   0.688   0.682   0.662   0.718   0.762   0.763   0.826   0.837   0.815   0.762   0.762   0.781   0.845   0.856   0.755   0.802   0.744   0.749
   298.60    0.722   0.739   0.699   0.670   0.689   0.761   0.777   0.722   0.741   0.785   0.795   0.753   0.774   0.729   0.776   0.756   0.741   0.703   0.701   0.612   0.613   0.601   0.588   0.615   0.623   0.597   0.622   0.603   0.560   0.619   0.639   0.601   0.671   0.653   0.645   0.687   0.693   0.698   0.677   0.648   0.634   0.643   0.635   0.648   0.664   0.697   0.752   0.801   0.804   0.834   0.781   0.795   0.751   0.779   0.789   0.777   0.789   0.756   0.749   0.735   0.773   0.746   0.726   0.725   0.784   0.771   0.742   0.780   0.751   0.779   0.795   0.777   0.745   0.750   0.761   0.771   0.784   0.801   0.839   0.787   0.780   0.801   0.829   0.843   0.780   0.776   0.786   0.846   0.838   0.814   0.827   0.796   0.821   0.766   0.739   0.728   0.749   0.782   0.695   0.681   0.696   0.687   0.726   0.727   0.700   0.706   0.700   0.743   0.731   0.714   0.711   0.705   0.738   0.745   0.739   0.751   0.785   0.742   0.730   0.722   0.654   0.693   0.743   0.772   0.775   0.791   0.817   0.821   0.848   0.891   0.868   0.916   0.905   0.859   0.828   0.815   0.859   0.844   0.836   0.748   0.666   0.655   0.618   0.618   0.587   0.645   0.701   0.711   0.688   0.742   0.706   0.708   0.692   0.650   0.645   0.634   0.635   0.651   0.700   0.696   0.736   0.682   0.721   0.734   0.666   0.680   0.695   0.707   0.702   0.674   0.669   0.702   0.654   0.698   0.671   0.645   0.719   0.641   0.707   0.748   0.767   0.780   0.759   0.771   0.757   0.777   0.781   0.868   0.834   0.809   0.765   0.747   0.739
   289.30    0.668   0.718   0.761   0.757   0.712   0.734   0.745   0.723   0.724   0.758   0.744   0.726   0.769   0.720   0.782   0.760   0.751   0.724   0.703   0.674   0.618   0.604   0.618   0.580   0.614   0.647   0.651   0.647   0.567   0.604   0.637   0.580   0.640   0.620   0.667   0.681   0.696   0.696   0.693   0.652   0.657   0.610   0.687   0.731   0.699   0.677   0.705   0.752   0.730   0.813   0.852   0.836   0.855   0.775   0.778   0.787   0.808   0.757   0.761   0.711   0.722   0.714   0.699   0.681   0.769   0.809   0.745   0.789   0.780   0.767   0.713   0.758   0.707   0.696   0.675   0.719   0.790   0.767   0.832   0.778   0.817   0.731   0.775   0.830   0.820   0.776   0.805   0.799   0.832   0.833   0.795   0.830   0.812   0.796   0.748   0.752   0.738   0.762   0.753   0.701   0.764   0.802   0.750   0.715   0.736   0.693   0.698   0.737   0.736   0.712   0.714   0.724   0.744   0.733   0.720   0.731   0.700   0.757   0.730   0.664   0.664   0.686   0.696   0.761   0.802   0.797   0.807   0.866   0.866   0.874   0.941   0.960   0.920   0.865   0.817   0.854   0.858   0.871   0.821   0.761   0.643   0.595   0.598   0.581   0.574   0.715   0.698   0.699   0.689   0.708   0.710   0.685   0.659   0.654   0.639   0.640   0.649   0.682   0.711   0.674   0.676   0.678   0.678   0.671   0.682   0.700   0.656   0.711   0.668   0.677   0.633   0.687   0.695   0.675   0.707   0.662   0.689   0.644   0.633   0.689   0.730   0.714   0.780   0.744   0.712   0.727   0.720   0.793   0.827   0.815   0.774   0.723   0.770
   280.00    0.733   0.732   0.776   0.783   0.763   0.761   0.703   0.699   0.677   0.686   0.741   0.752   0.709   0.716   0.759   0.801   0.780   0.699   0.664   0.666   0.642   0.621   0.611   0.590   0.632   0.613   0.623   0.656   0.595   0.629   0.630   0.606   0.588   0.648   0.623   0.644   0.627   0.658   0.612   0.623   0.624   0.650   0.678   0.702   0.727   0.662   0.700   0.705   0.678   0.761   0.806   0.876   0.816   0.798   0.778   0.750   0.731   0.779   0.738   0.718   0.715   0.695   0.701   0.758   0.802   0.808   0.810   0.781   0.806   0.798   0.755   0.762   0.681   0.645   0.674   0.732   0.782   0.748   0.736   0.737   0.739   0.714   0.740   0.758   0.748   0.797   0.822   0.806   0.804   0.789   0.804   0.814   0.753   0.751   0.760   0.743   0.684   0.714   0.703   0.676   0.726   0.742   0.740   0.743   0.744   0.706   0.655   0.707   0.720   0.720   0.728   0.726   0.700   0.753   0.777   0.706   0.717   0.706   0.683   0.682   0.675   0.705   0.703   0.761   0.763   0.810   0.776   0.861   0.886   0.892   0.929   0.900   0.925   0.870   0.839   0.855   0.854   0.824   0.781   0.740   0.704   0.618   0.599   0.621   0.671   0.688   0.710   0.685   0.657   0.711   0.702   0.735   0.715   0.714   0.633   0.602   0.667   0.699   0.682   0.661   0.644   0.688   0.661   0.651   0.694   0.703   0.688   0.714   0.662   0.627   0.647   0.654   0.652   0.676   0.702   0.716   0.673   0.696   0.671   0.707   0.723   0.766   0.788   0.780   0.742   0.751   0.759   0.787   0.865   0.816   0.743   0.747   0.757
   270.70    0.686   0.717   0.738   0.758   0.761   0.739   0.702   0.734   0.660   0.654   0.723   0.731   0.717   0.752   0.769   0.778   0.794   0.746   0.697   0.617   0.623   0.598   0.601   0.585   0.596   0.611   0.607   0.601   0.599   0.655   0.663   0.638   0.636   0.682   0.680   0.660   0.620   0.629   0.637   0.644   0.646   0.656   0.700   0.738   0.739   0.669   0.670   0.706   0.712   0.720   0.837   0.842   0.794   0.775   0.756   0.785   0.754   0.803   0.746   0.733   0.747   0.761   0.727   0.761   0.805   0.817   0.825   0.806   0.780   0.764   0.772   0.751   0.709   0.700   0.712   0.730   0.771   0.760   0.730   0.753   0.720   0.710   0.717   0.690   0.731   0.720   0.747   0.755   0.784   0.795   0.798   0.794   0.791   0.699   0.674   0.683   0.666   0.712   0.706   0.717   0.694   0.672   0.691   0.746   0.737   0.727   0.739   0.698   0.718   0.758   0.754   0.710   0.684   0.738   0.761   0.697   0.663   0.685   0.689   0.706   0.709   0.721   0.735   0.766   0.759   0.787   0.778   0.802   0.810   0.846   0.865   0.871   0.871   0.898   0.884   0.880   0.906   0.821   0.769   0.723   0.722   0.682   0.631   0.630   0.626   0.642   0.638   0.611   0.670   0.735   0.676   0.674   0.691   0.660   0.649   0.633   0.628   0.626   0.645   0.649   0.657   0.697   0.702   0.701   0.728   0.741   0.722   0.704   0.649   0.636   0.599   0.626   0.637   0.686   0.700   0.716   0.681   0.683   0.723   0.755   0.740   0.750   0.751   0.819   0.782   0.807   0.786   0.794   0.835   0.837   0.777   0.758   0.706
   261.40    0.667   0.684   0.701   0.734   0.732   0.714   0.708   0.695   0.665   0.677   0.737   0.717   0.738   0.752   0.797   0.778   0.763   0.756   0.682   0.638   0.636   0.614   0.664   0.621   0.583   0.602   0.620   0.631   0.620   0.638   0.662   0.678   0.630   0.690   0.685   0.670   0.631   0.601   0.643   0.617   0.624   0.668   0.714   0.746   0.735   0.703   0.701   0.730   0.753   0.724   0.786   0.805   0.750   0.770   0.770   0.815   0.822   0.792   0.757   0.793   0.807   0.743   0.781   0.772   0.811   0.791   0.786   0.760   0.772   0.823   0.817   0.743   0.671   0.678   0.727   0.739   0.748   0.738   0.714   0.694   0.719   0.709   0.723   0.729   0.744   0.675   0.708   0.738   0.807   0.842   0.796   0.788   0.775   0.707   0.626   0.675   0.646   0.675   0.719   0.725   0.729   0.696   0.762   0.793   0.750   0.705   0.746   0.648   0.720   0.769   0.742   0.734   0.727   0.740   0.768   0.703   0.660   0.695   0.714   0.726   0.733   0.747   0.776   0.781   0.781   0.812   0.833   0.811   0.799   0.838   0.840   0.849   0.832   0.810   0.843   0.864   0.860   0.853   0.752   0.713   0.723   0.668   0.661   0.633   0.630   0.633   0.596   0.608   0.656   0.654   0.644   0.686   0.634   0.658   0.621   0.614   0.621   0.613   0.625   0.649   0.665   0.700   0.715   0.703   0.696   0.694   0.674   0.659   0.636   0.637   0.589   0.603   0.627   0.690   0.682   0.683   0.722   0.681   0.711   0.744   0.719   0.710   0.745   0.774   0.784   0.748   0.756   0.773   0.785   0.795   0.813   0.757   0.706
   252.10    0.645   0.693   0.755   0.738   0.727   0.707   0.728   0.712   0.684   0.649   0.691   0.728   0.733   0.788   0.742   0.761   0.741   0.754   0.686   0.659   0.633   0.638   0.685   0.611   0.650   0.665   0.649   0.654   0.634   0.669   0.676   0.680   0.682   0.684   0.660   0.698   0.691   0.610   0.600   0.584   0.603   0.644   0.719   0.720   0.731   0.703   0.733   0.748   0.711   0.740   0.758   0.800   0.769   0.775   0.761   0.775   0.820   0.764   0.811   0.808   0.801   0.753   0.752   0.788   0.828   0.820   0.788   0.791   0.785   0.830   0.831   0.736   0.684   0.674   0.719   0.749   0.683   0.671   0.683   0.701   0.706   0.752   0.767   0.734   0.747   0.717   0.757   0.728   0.759   0.754   0.734   0.731   0.719   0.706   0.668   0.654   0.727   0.686   0.717   0.712   0.729   0.697   0.760   0.782   0.748   0.718   0.720   0.663   0.752   0.762   0.767   0.718   0.714   0.745   0.775   0.703   0.673   0.705   0.681   0.709   0.721   0.759   0.777   0.765   0.766   0.777   0.755   0.752   0.792   0.806   0.803   0.809   0.787   0.776   0.744   0.807   0.793   0.793   0.799   0.722   0.695   0.698   0.650   0.640   0.602   0.675   0.664   0.633   0.623   0.614   0.628   0.632   0.594   0.603   0.598   0.586   0.596   0.597   0.603   0.644   0.689   0.742   0.717   0.748   0.721   0.679   0.627   0.658   0.634   0.632   0.651   0.642   0.604   0.675   0.688   0.689   0.732   0.665   0.685   0.707   0.701   0.711   0.702   0.722   0.726   0.732   0.731   0.714   0.773   0.812   0.813   0.773   0.731
   242.80    0.705   0.722   0.771   0.725   0.728   0.768   0.731   0.672   0.670   0.694   0.694   0.765   0.772   0.765   0.734   0.700   0.652   0.661   0.708   0.683   0.655   0.635   0.668   0.658   0.688   0.651   0.707   0.650   0.669   0.707   0.687   0.667   0.681   0.677   0.689   0.719   0.730   0.660   0.569   0.586   0.603   0.584   0.685   0.740   0.767   0.735   0.776   0.744   0.712   0.752   0.755   0.744   0.741   0.753   0.808   0.758   0.726   0.757   0.818   0.816   0.769   0.757   0.768   0.765   0.823   0.851   0.788   0.783   0.804   0.859   0.835   0.790   0.726   0.713   0.732   0.725   0.679   0.656   0.701   0.646   0.690   0.778   0.788   0.725   0.734   0.711   0.722   0.744   0.793   0.790   0.758   0.705   0.726   0.692   0.733   0.711   0.710   0.712   0.695   0.723   0.781   0.716   0.739   0.747   0.748   0.693   0.739   0.721   0.774   0.768   0.722   0.768   0.751   0.751   0.746   0.706   0.706   0.699   0.699   0.707   0.718   0.703   0.737   0.710   0.764   0.760   0.786   0.737   0.735   0.755   0.806   0.778   0.764   0.768   0.777   0.771   0.808   0.767   0.782   0.769   0.686   0.668   0.613   0.644   0.641   0.677   0.628   0.633   0.616   0.587   0.596   0.575   0.582   0.589   0.580   0.561   0.559   0.610   0.583   0.603   0.634   0.671   0.710   0.721   0.708   0.652   0.663   0.687   0.639   0.651   0.665   0.677   0.666   0.656   0.686   0.664   0.674   0.688   0.751   0.745   0.723   0.745   0.729   0.732   0.721   0.711   0.730   0.710   0.743   0.791   0.788   0.708   0.692
   233.50    0.764   0.750   0.782   0.705   0.689   0.677   0.688   0.711   0.655   0.685   0.721   0.745   0.727   0.687   0.678   0.626   0.662   0.591   0.638   0.583   0.587   0.625   0.632   0.617   0.651   0.712   0.675   0.666   0.750   0.735   0.726   0.683   0.679   0.687   0.684   0.718   0.713   0.686   0.650   0.642   0.634   0.630   0.677   0.705   0.687   0.772   0.748   0.732   0.712   0.732   0.703   0.742   0.760   0.783   0.821   0.783   0.757   0.755   0.817   0.821   0.830   0.779   0.765   0.765   0.797   0.819   0.794   0.793   0.798   0.853   0.815   0.789   0.760   0.755   0.699   0.675   0.662   0.660   0.665   0.699   0.657   0.725   0.734   0.748   0.751   0.786   0.751   0.722   0.776   0.798   0.759   0.732   0.701   0.763   0.724   0.701   0.742   0.696   0.737   0.746   0.773   0.732   0.741   0.706   0.744   0.753   0.766   0.779   0.787   0.793   0.754   0.740   0.820   0.778   0.724   0.678   0.699   0.698   0.715   0.718   0.757   0.747   0.684   0.665   0.719   0.740   0.741   0.720   0.703   0.751   0.779   0.715   0.726   0.769   0.774   0.751   0.787   0.839   0.815   0.763   0.729   0.696   0.683   0.718   0.681   0.639   0.648   0.581   0.577   0.607   0.579   0.588   0.568   0.546   0.559   0.562   0.492   0.560   0.590   0.612   0.602   0.663   0.693   0.694   0.671   0.634   0.622   0.696   0.679   0.705   0.703   0.671   0.677   0.685   0.663   0.681   0.687   0.659   0.743   0.727   0.707   0.777   0.765   0.748   0.808   0.787   0.744   0.681   0.695   0.741   0.774   0.753   0.678
   224.20    0.757   0.760   0.753   0.656   0.665   0.632   0.693   0.642   0.686   0.692   0.738   0.732   0.773   0.731   0.683   0.653   0.650   0.644   0.642   0.613   0.601   0.614   0.647   0.644   0.623   0.639   0.662   0.728   0.800   0.773   0.699   0.705   0.665   0.645   0.651   0.698   0.668   0.688   0.721   0.727   0.694   0.700   0.717   0.708   0.658   0.728   0.706   0.727   0.739   0.701   0.732   0.731   0.749   0.819   0.792   0.807   0.754   0.743   0.788   0.812   0.824   0.806   0.824   0.831   0.802   0.771   0.778   0.768   0.793   0.798   0.771   0.820   0.763   0.700   0.630   0.659   0.669   0.686   0.706   0.678   0.660   0.707   0.725   0.756   0.786   0.797   0.755   0.749   0.734   0.736   0.696   0.724   0.758   0.800   0.760   0.712   0.746   0.709   0.665   0.753   0.734   0.759   0.720   0.723   0.751   0.775   0.784   0.806   0.778   0.819   0.777   0.751   0.782   0.717   0.701   0.741   0.703   0.686   0.722   0.763   0.743   0.695   0.706   0.716   0.719   0.755   0.735   0.677   0.704   0.719   0.743   0.742   0.724   0.686   0.742   0.720   0.778   0.844   0.805   0.765   0.724   0.715   0.706   0.707   0.683   0.652   0.616   0.605   0.584   0.609   0.600   0.571   0.580   0.556   0.578   0.532   0.590   0.569   0.589   0.566   0.579   0.668   0.700   0.680   0.655   0.635   0.619   0.678   0.678   0.665   0.651   0.675   0.655   0.682   0.680   0.638   0.662   0.704   0.762   0.790   0.784   0.792   0.780   0.801   0.771   0.787   0.771   0.696   0.698   0.706   0.730   0.688   0.692
   214.90    0.766   0.731   0.726   0.657   0.671   0.656   0.642   0.655   0.696   0.714   0.752   0.761   0.788   0.734   0.705   0.690   0.711   0.718   0.707   0.651   0.636   0.620   0.641   0.670   0.644   0.675   0.710   0.743   0.795   0.790   0.755   0.716   0.696   0.647   0.627   0.671   0.689   0.708   0.765   0.743   0.719   0.713   0.698   0.650   0.650   0.700   0.732   0.740   0.750   0.769   0.758   0.783   0.813   0.779   0.780   0.805   0.732   0.730   0.755   0.786   0.806   0.809   0.807   0.766   0.765   0.710   0.705   0.699   0.779   0.748   0.724   0.756   0.683   0.651   0.669   0.628   0.673   0.651   0.678   0.677   0.634   0.679   0.724   0.771   0.774   0.767   0.721   0.746   0.690   0.692   0.730   0.731   0.771   0.793   0.770   0.750   0.713   0.706   0.760   0.792   0.799   0.795   0.771   0.803   0.779   0.816   0.815   0.825   0.776   0.778   0.747   0.738   0.740   0.701   0.683   0.746   0.723   0.724   0.703   0.700   0.726   0.730   0.748   0.732   0.672   0.716   0.720   0.699   0.759   0.736   0.736   0.736   0.716   0.666   0.733   0.751   0.806   0.826   0.776   0.754   0.738   0.761   0.714   0.720   0.728   0.637   0.632   0.594   0.629   0.580   0.596   0.600   0.583   0.560   0.567   0.572   0.565   0.622   0.601   0.648   0.628   0.671   0.687   0.680   0.645   0.629   0.615   0.668   0.637   0.654   0.707   0.693   0.727   0.725   0.683   0.668   0.618   0.642   0.730   0.779   0.814   0.816   0.807   0.774   0.806   0.840   0.818   0.760   0.762   0.745   0.689   0.702   0.675
   205.60    0.760   0.688   0.697   0.674   0.619   0.649   0.673   0.666   0.680   0.671   0.685   0.752   0.784   0.729   0.714   0.703   0.766   0.759   0.780   0.709   0.671   0.670   0.712   0.670   0.659   0.645   0.692   0.740   0.768   0.774   0.711   0.725   0.700   0.676   0.622   0.676   0.694   0.725   0.778   0.787   0.744   0.672   0.652   0.657   0.685   0.753   0.776   0.785   0.734   0.745   0.745   0.736   0.778   0.822   0.821   0.754   0.743   0.729   0.721   0.771   0.811   0.785   0.790   0.723   0.689   0.675   0.664   0.699   0.715   0.674   0.705   0.725   0.659   0.619   0.624   0.605   0.622   0.657   0.688   0.677   0.705   0.748   0.728   0.728   0.726   0.695   0.692   0.691   0.684   0.709   0.713   0.745   0.768   0.784   0.736   0.757   0.715   0.729   0.776   0.787   0.798   0.838   0.798   0.766   0.791   0.835   0.785   0.795   0.754   0.724   0.738   0.757   0.688   0.686   0.753   0.744   0.772   0.736   0.708   0.712   0.756   0.765   0.743   0.686   0.662   0.692   0.711   0.728   0.758   0.734   0.726   0.754   0.720   0.749   0.710   0.768   0.808   0.790   0.747   0.778   0.791   0.740   0.743   0.772   0.681   0.650   0.615   0.590   0.572   0.600   0.590   0.552   0.540   0.537   0.499   0.548   0.591   0.588   0.598   0.638   0.684   0.689   0.663   0.697   0.651   0.657   0.637   0.640   0.656   0.680   0.735   0.719   0.762   0.760   0.758   0.694   0.664   0.674   0.712   0.774   0.761   0.783   0.797   0.777   0.770   0.835   0.831   0.798   0.792   0.753   0.679   0.746   0.700
   196.30    0.732   0.665   0.649   0.685   0.683   0.691   0.685   0.624   0.659   0.673   0.687   0.745   0.761   0.746   0.781   0.766   0.773   0.758   0.752   0.733   0.711   0.700   0.695   0.669   0.655   0.652   0.671   0.685   0.702   0.708   0.763   0.749   0.717   0.671   0.668   0.670   0.689   0.758   0.782   0.747   0.687   0.678   0.712   0.675   0.730   0.708   0.797   0.758   0.753   0.745   0.709   0.761   0.786   0.858   0.795   0.772   0.713   0.715   0.716   0.731   0.742   0.701   0.691   0.711   0.670   0.685   0.667   0.647   0.699   0.679   0.701   0.734   0.692   0.629   0.611   0.634   0.648   0.738   0.794   0.703   0.640   0.695   0.713   0.735   0.733   0.725   0.667   0.651   0.693   0.724   0.750   0.745   0.685   0.757   0.686   0.762   0.740   0.710   0.760   0.768   0.739   0.814   0.821   0.760   0.798   0.808   0.816   0.734   0.736   0.699   0.765   0.752   0.722   0.706   0.716   0.700   0.751   0.746   0.731   0.734   0.695   0.764   0.733   0.682   0.699   0.725   0.754   0.722   0.733   0.772   0.793   0.767   0.709   0.738   0.703   0.772   0.802   0.750   0.785   0.807   0.812   0.797   0.701   0.723   0.699   0.725   0.656   0.603   0.528   0.566   0.581   0.599   0.558   0.540   0.517   0.538   0.583   0.618   0.591   0.626   0.657   0.665   0.666   0.696   0.682   0.691   0.676   0.657   0.655   0.691   0.721   0.709   0.675   0.731   0.705   0.714   0.679   0.683   0.753   0.752   0.755   0.769   0.755   0.772   0.774   0.797   0.806   0.831   0.792   0.752   0.717   0.715   0.716
   187.00    0.750   0.671   0.670   0.691   0.699   0.677   0.610   0.652   0.626   0.648   0.687   0.804   0.780   0.763   0.752   0.732   0.763   0.723   0.765   0.758   0.736   0.665   0.649   0.685   0.632   0.722   0.686   0.645   0.657   0.746   0.773   0.749   0.767   0.752   0.732   0.738   0.796   0.774   0.737   0.693   0.719   0.742   0.705   0.697   0.689   0.728   0.744   0.733   0.689   0.693   0.687   0.725   0.821   0.796   0.776   0.738   0.726   0.673   0.685   0.655   0.670   0.717   0.672   0.641   0.663   0.631   0.633   0.694   0.690   0.760   0.710   0.706   0.663   0.658   0.696   0.718   0.736   0.757   0.824   0.720   0.725   0.720   0.731   0.785   0.716   0.668   0.679   0.712   0.727   0.707   0.749   0.744   0.727   0.743   0.727   0.724   0.726   0.746   0.748   0.733   0.761   0.705   0.715   0.754   0.772   0.811   0.753   0.713   0.714   0.771   0.775   0.751   0.726   0.687   0.693   0.748   0.752   0.757   0.714   0.734   0.712   0.768   0.787   0.737   0.703   0.712   0.794   0.764   0.787   0.765   0.796   0.783   0.708   0.739   0.711   0.749   0.784   0.743   0.797   0.818   0.799   0.801   0.762   0.771   0.738   0.682   0.699   0.604   0.587   0.568   0.637   0.625   0.587   0.575   0.561   0.564   0.575   0.595   0.628   0.627   0.621   0.668   0.651   0.700   0.687   0.687   0.650   0.674   0.661   0.663   0.694   0.709   0.694   0.704   0.744   0.707   0.734   0.680   0.724   0.699   0.725   0.699   0.723   0.755   0.766   0.745   0.756   0.785   0.752   0.713   0.684   0.689   0.650
   177.70    0.721   0.724   0.690   0.722   0.697   0.687   0.648   0.669   0.701   0.678   0.756   0.781   0.775   0.732   0.760   0.715   0.737   0.763   0.803   0.753   0.722   0.701   0.648   0.674   0.683   0.702   0.681   0.660   0.711   0.717   0.766   0.730   0.794   0.788   0.794   0.792   0.804   0.825   0.727   0.668   0.702   0.722   0.679   0.698   0.687   0.664   0.668   0.702   0.705   0.697   0.668   0.708   0.757   0.766   0.734   0.714   0.682   0.662   0.704   0.713   0.680   0.701   0.717   0.731   0.686   0.664   0.626   0.655   0.703   0.736   0.692   0.682   0.691   0.698   0.702   0.740   0.727   0.761   0.761   0.742   0.705   0.719   0.764   0.785   0.786   0.713   0.673   0.724   0.735   0.732   0.697   0.756   0.712   0.734   0.739   0.770   0.781   0.796   0.765   0.744   0.686   0.725   0.699   0.706   0.702   0.719   0.747   0.677   0.673   0.726   0.737   0.702   0.738   0.717   0.731   0.739   0.732   0.778   0.777   0.703   0.750   0.769   0.764   0.737   0.727   0.731   0.758   0.785   0.809   0.821   0.752   0.735   0.733   0.758   0.788   0.760   0.743   0.729   0.733   0.756   0.761   0.766   0.742   0.776   0.743   0.713   0.684   0.679   0.584   0.622   0.648   0.680   0.628   0.624   0.598   0.578   0.577   0.577   0.609   0.634   0.614   0.649   0.652   0.655   0.681   0.715   0.709   0.705   0.705   0.693   0.671   0.652   0.689   0.722   0.701   0.681   0.697   0.680   0.677   0.687   0.692   0.690   0.720   0.713   0.722   0.751   0.727   0.752   0.738   0.685   0.689   0.674   0.671
   168.40    0.693   0.710   0.740   0.710   0.694   0.643   0.650   0.698   0.719   0.744   0.806   0.796   0.742   0.716   0.729   0.718   0.730   0.773   0.750   0.761   0.724   0.668   0.641   0.654   0.642   0.698   0.744   0.708   0.717   0.722   0.728   0.741   0.787   0.764   0.785   0.823   0.849   0.815   0.769   0.720   0.697   0.703   0.696   0.697   0.697   0.692   0.624   0.623   0.693   0.722   0.718   0.715   0.739   0.719   0.726   0.743   0.718   0.669   0.692   0.673   0.682   0.682   0.705   0.716   0.670   0.638   0.621   0.664   0.679   0.662   0.650   0.679   0.678   0.662   0.712   0.689   0.706   0.710   0.688   0.691   0.665   0.698   0.756   0.812   0.812   0.757   0.744   0.766   0.749   0.743   0.732   0.724   0.722   0.757   0.738   0.747   0.760   0.726   0.742   0.672   0.656   0.692   0.716   0.699   0.705   0.726   0.693   0.729   0.745   0.690   0.704   0.709   0.710   0.743   0.737   0.739   0.717   0.705   0.730   0.708   0.744   0.761   0.750   0.728   0.752   0.706   0.693   0.745   0.792   0.807   0.742   0.736   0.711   0.724   0.738   0.738   0.751   0.696   0.682   0.693   0.703   0.704   0.731   0.722   0.774   0.725   0.698   0.668   0.622   0.654   0.696   0.641   0.643   0.633   0.617   0.648   0.577   0.621   0.655   0.641   0.644   0.633   0.622   0.704   0.704   0.687   0.701   0.674   0.675   0.663   0.632   0.631   0.674   0.684   0.723   0.702   0.706   0.654   0.639   0.661   0.655   0.658   0.677   0.656   0.682   0.678   0.749   0.710   0.682   0.665   0.696   0.669   0.650
   159.10    0.740   0.685   0.705   0.727   0.732   0.735   0.706   0.709   0.711   0.731   0.805   0.830   0.792   0.722   0.768   0.795   0.770   0.779   0.771   0.786   0.694   0.662   0.642   0.693   0.728   0.792   0.764   0.773   0.777   0.710   0.743   0.707   0.745   0.769   0.761   0.810   0.855   0.848   0.809   0.807   0.686   0.642   0.659   0.687   0.735   0.699   0.692   0.675   0.706   0.691   0.689   0.700   0.689   0.717   0.688   0.719   0.767   0.690   0.661   0.635   0.646   0.679   0.662   0.692   0.630   0.636   0.630   0.652   0.715   0.676   0.690   0.694   0.670   0.664   0.703   0.701   0.701   0.686   0.660   0.689   0.648   0.706   0.788   0.761   0.776   0.744   0.749   0.777   0.705   0.733   0.778   0.745   0.739   0.744   0.756   0.752   0.786   0.752   0.729   0.688   0.706   0.686   0.649   0.722   0.717   0.720   0.687   0.707   0.744   0.700   0.697   0.711   0.680   0.687   0.717   0.699   0.710   0.682   0.639   0.669   0.729   0.711   0.745   0.780   0.738   0.700   0.689   0.746   0.756   0.786   0.753   0.721   0.728   0.681   0.734   0.704   0.691   0.684   0.615   0.622   0.663   0.643   0.679   0.719   0.694   0.682   0.731   0.699   0.649   0.714   0.663   0.629   0.615   0.600   0.590   0.653   0.611   0.650   0.679   0.670   0.676   0.603   0.655   0.662   0.670   0.711   0.670   0.675   0.651   0.643   0.609   0.643   0.594   0.619   0.669   0.666   0.641   0.637   0.623   0.659   0.636   0.669   0.639   0.655   0.678   0.695   0.700   0.690   0.682   0.644   0.661   0.642   0.665
   149.80    0.746   0.699   0.694   0.728   0.718   0.738   0.726   0.710   0.694   0.708   0.746   0.790   0.737   0.755   0.796   0.831   0.810   0.798   0.766   0.770   0.722   0.659   0.636   0.639   0.711   0.750   0.760   0.772   0.733   0.666   0.750   0.753   0.787   0.739   0.835   0.880   0.815   0.827   0.834   0.782   0.773   0.717   0.667   0.719   0.705   0.766   0.735   0.701   0.706   0.698   0.738   0.708   0.664   0.665   0.732   0.759   0.706   0.722   0.667   0.668   0.643   0.632   0.664   0.616   0.641   0.667   0.693   0.715   0.738   0.694   0.723   0.733   0.710   0.709   0.740   0.747   0.721   0.738   0.684   0.662   0.645   0.677   0.698   0.735   0.774   0.729   0.753   0.794   0.760   0.765   0.776   0.785   0.746   0.717   0.713   0.733   0.720   0.773   0.738   0.756   0.716   0.700   0.704   0.750   0.750   0.748   0.714   0.722   0.738   0.734   0.750   0.747   0.690   0.713   0.712   0.754   0.705   0.702   0.664   0.693   0.716   0.740   0.756   0.725   0.756   0.738   0.726   0.775   0.735   0.750   0.747   0.681   0.678   0.656   0.686   0.661   0.639   0.653   0.609   0.622   0.634   0.627   0.667   0.641   0.681   0.671   0.689   0.695   0.667   0.710   0.668   0.607   0.602   0.608   0.631   0.660   0.688   0.694   0.706   0.644   0.639   0.610   0.574   0.650   0.628   0.654   0.680   0.650   0.641   0.660   0.611   0.615   0.605   0.591   0.605   0.628   0.637   0.655   0.616   0.627   0.629   0.655   0.646   0.633   0.667   0.637   0.655   0.679   0.665   0.664   0.632   0.642   0.613
   140.50    0.796   0.749   0.769   0.743   0.691   0.718   0.748   0.704   0.672   0.712   0.743   0.773   0.814   0.747   0.772   0.766   0.847   0.786   0.812   0.741   0.720   0.704   0.654   0.688   0.711   0.696   0.680   0.708   0.670   0.670   0.703   0.745   0.810   0.771   0.787   0.860   0.851   0.797   0.807   0.816   0.784   0.772   0.736   0.706   0.668   0.763   0.764   0.732   0.681   0.689   0.713   0.683   0.668   0.671   0.756   0.726   0.753   0.776   0.710   0.672   0.698   0.685   0.674   0.651   0.669   0.691   0.700   0.699   0.730   0.756   0.762   0.722   0.716   0.716   0.743   0.734   0.743   0.747   0.673   0.617   0.632   0.619   0.608   0.660   0.727   0.744   0.789   0.790   0.761   0.802   0.800   0.753   0.766   0.761   0.753   0.717   0.712   0.716   0.717   0.724   0.705   0.711   0.688   0.749   0.704   0.767   0.789   0.744   0.764   0.803   0.758   0.775   0.715   0.681   0.703   0.713   0.698   0.693   0.674   0.685   0.747   0.763   0.783   0.755   0.740   0.737   0.733   0.775   0.724   0.728   0.710   0.657   0.670   0.679   0.627   0.644   0.626   0.633   0.644   0.676   0.672   0.639   0.588   0.630   0.653   0.629   0.677   0.696   0.701   0.726   0.703   0.664   0.660   0.642   0.636   0.654   0.662   0.701   0.734   0.685   0.589   0.600   0.591   0.627   0.596   0.592   0.624   0.634   0.620   0.648   0.656   0.653   0.654   0.655   0.628   0.665   0.627   0.647   0.679   0.673   0.642   0.638   0.637   0.667   0.625   0.595   0.650   0.631   0.647   0.658   0.608   0.613   0.596
   131.20    0.739   0.676   0.753   0.770   0.730   0.697   0.680   0.749   0.708   0.782   0.765   0.764   0.792   0.766   0.783   0.795   0.806   0.768   0.767   0.767   0.737   0.763   0.680   0.670   0.734   0.691   0.707   0.717   0.668   0.636   0.661   0.738   0.780   0.803   0.806   0.840   0.841   0.840   0.813   0.792   0.783   0.759   0.703   0.722   0.691   0.753   0.793   0.758   0.747   0.735   0.712   0.686   0.634   0.653   0.690   0.697   0.749   0.735   0.678   0.685   0.695   0.680   0.637   0.642   0.687   0.696   0.717   0.740   0.712   0.761   0.747   0.739   0.753   0.737   0.717   0.696   0.704   0.726   0.673   0.685   0.665   0.642   0.654   0.662   0.704   0.733   0.800   0.822   0.809   0.784   0.816   0.735   0.777   0.780   0.741   0.678   0.661   0.722   0.737   0.695   0.682   0.684   0.707   0.756   0.770   0.790   0.792   0.827   0.785   0.803   0.737   0.699   0.735   0.692   0.699   0.678   0.672   0.718   0.650   0.686   0.711   0.818   0.800   0.789   0.729   0.765   0.757   0.759   0.734   0.656   0.631   0.626   0.644   0.703   0.640   0.612   0.658   0.687   0.689   0.685   0.615   0.568   0.565   0.607   0.585   0.584   0.660   0.696   0.701   0.725   0.675   0.693   0.671   0.630   0.593   0.639   0.692   0.705   0.706   0.664   0.625   0.612   0.612   0.627   0.629   0.624   0.614   0.641   0.623   0.641   0.660   0.693   0.691   0.702   0.704   0.629   0.571   0.651   0.708   0.713   0.709   0.653   0.648   0.679   0.604   0.543   0.619   0.603   0.630   0.637   0.614   0.632   0.619
   121.90    0.744   0.692   0.763   0.709   0.724   0.670   0.706   0.735   0.718   0.737   0.764   0.818   0.787   0.775   0.799   0.788   0.760   0.753   0.774   0.751   0.778   0.773   0.720   0.737   0.748   0.674   0.711   0.702   0.660   0.701   0.731   0.788   0.780   0.773   0.796   0.770   0.824   0.783   0.734   0.790   0.808   0.782   0.733   0.751   0.760   0.792   0.823   0.766   0.735   0.695   0.659   0.675   0.647   0.616   0.640   0.636   0.659   0.709   0.672   0.681   0.690   0.660   0.646   0.599   0.645   0.711   0.727   0.769   0.736   0.745   0.740   0.750   0.759   0.727   0.729   0.704   0.704   0.713   0.728   0.708   0.692   0.659   0.699   0.673   0.687   0.777   0.779   0.739   0.771   0.754   0.726   0.770   0.734   0.703   0.707   0.659   0.679   0.691   0.722   0.705   0.731   0.732   0.742   0.731   0.758   0.765   0.852   0.821   0.786   0.765   0.771   0.745   0.735   0.683   0.685   0.691   0.672   0.723   0.686   0.715   0.681   0.768   0.818   0.798   0.772   0.759   0.707   0.707   0.695   0.684   0.586   0.586   0.636   0.681   0.681   0.687   0.694   0.648   0.626   0.638   0.606   0.553   0.571   0.554   0.583   0.603   0.645   0.694   0.752   0.717   0.671   0.671   0.634   0.624   0.565   0.610   0.647   0.658   0.679   0.693   0.623   0.610   0.579   0.615   0.623   0.603   0.587   0.605   0.581   0.596   0.642   0.708   0.696   0.705   0.714   0.709   0.650   0.639   0.684   0.669   0.694   0.673   0.642   0.641   0.588   0.561   0.585   0.598   0.684   0.613   0.629   0.615   0.637
   112.60    0.713   0.744   0.759   0.708   0.683   0.716   0.665   0.687   0.679   0.711   0.770   0.781   0.787   0.845   0.794   0.797   0.756   0.739   0.742   0.768   0.780   0.743   0.755   0.705   0.731   0.718   0.724   0.721   0.641   0.688   0.737   0.767   0.768   0.727   0.768   0.775   0.766   0.741   0.746   0.769   0.810   0.753   0.724   0.766   0.782   0.821   0.841   0.765   0.762   0.709   0.697   0.661   0.622   0.585   0.591   0.658   0.645   0.663   0.681   0.684   0.692   0.713   0.706   0.694   0.706   0.718   0.777   0.770   0.724   0.748   0.753   0.749   0.747   0.712   0.712   0.708   0.694   0.721   0.766   0.767   0.749   0.710   0.708   0.694   0.687   0.727   0.803   0.852   0.842   0.768   0.791   0.783   0.750   0.684   0.642   0.606   0.649   0.658   0.708   0.754   0.714   0.713   0.729   0.770   0.729   0.773   0.797   0.782   0.822   0.765   0.768   0.728   0.728   0.712   0.682   0.663   0.678   0.687   0.670   0.710   0.699   0.739   0.758   0.708   0.735   0.767   0.778   0.622   0.606   0.619   0.631   0.601   0.623   0.684   0.637   0.647   0.663   0.677   0.599   0.636   0.628   0.560   0.590   0.587   0.544   0.554   0.643   0.690   0.772   0.771   0.702   0.671   0.673   0.632   0.629   0.642   0.660   0.640   0.664   0.661   0.651   0.596   0.603   0.620   0.622   0.640   0.628   0.591   0.607   0.597   0.611   0.685   0.717   0.718   0.687   0.697   0.636   0.636   0.648   0.662   0.654   0.657   0.628   0.654   0.558   0.566   0.575   0.620   0.643   0.640   0.629   0.590   0.613
   103.30    0.715   0.752   0.739   0.686   0.705   0.686   0.636   0.638   0.678   0.745   0.805   0.812   0.814   0.857   0.831   0.782   0.752   0.679   0.692   0.726   0.673   0.705   0.706   0.702   0.725   0.687   0.710   0.687   0.682   0.709   0.726   0.698   0.727   0.738   0.726   0.728   0.752   0.764   0.752   0.744   0.732   0.791   0.742   0.722   0.757   0.800   0.864   0.798   0.708   0.699   0.721   0.615   0.657   0.606   0.606   0.692   0.693   0.651   0.675   0.685   0.674   0.682   0.669   0.687   0.704   0.774   0.794   0.790   0.744   0.744   0.741   0.709   0.740   0.726   0.668   0.704   0.713   0.718   0.696   0.763   0.769   0.709   0.675   0.683   0.671   0.700   0.766   0.799   0.786   0.836   0.781   0.755   0.768   0.639   0.666   0.672   0.631   0.640   0.697   0.757   0.724   0.756   0.739   0.719   0.751   0.734   0.741   0.793   0.771   0.789   0.747   0.755   0.688   0.710   0.675   0.645   0.621   0.644   0.618   0.626   0.644   0.735   0.745   0.758   0.766   0.767   0.686   0.683   0.612   0.612   0.609   0.615   0.636   0.631   0.596   0.614   0.647   0.623   0.591   0.610   0.627   0.597   0.627   0.615   0.540   0.568   0.637   0.678   0.776   0.822   0.732   0.700   0.639   0.620   0.642   0.660   0.675   0.653   0.667   0.688   0.677   0.643   0.693   0.652   0.631   0.661   0.726   0.679   0.659   0.631   0.641   0.698   0.694   0.673   0.693   0.655   0.636   0.594   0.631   0.665   0.616   0.616   0.625   0.622   0.575   0.578   0.527   0.614   0.634   0.621   0.619   0.617   0.590
    94.00    0.709   0.718   0.734   0.699   0.714   0.685   0.642   0.643   0.704   0.792   0.843   0.777   0.775   0.805   0.833   0.819   0.738   0.679   0.682   0.690   0.693   0.709   0.731   0.698   0.757   0.808   0.758   0.699   0.717   0.671   0.695   0.702   0.673   0.696   0.700   0.702   0.719   0.740   0.746   0.744   0.793   0.741   0.718   0.730   0.737   0.805   0.870   0.867   0.783   0.723   0.716   0.616   0.594   0.643   0.669   0.686   0.611   0.657   0.690   0.681   0.647   0.658   0.655   0.664   0.737   0.774   0.779   0.771   0.749   0.793   0.734   0.727   0.739   0.721   0.669   0.691   0.720   0.730   0.729   0.701   0.692   0.680   0.676   0.671   0.684   0.709   0.720   0.744   0.828   0.868   0.813   0.771   0.727   0.714   0.666   0.631   0.615   0.654   0.687   0.753   0.735   0.760   0.708   0.686   0.709   0.696   0.683   0.730   0.704   0.728   0.668   0.664   0.600   0.616   0.650   0.641   0.582   0.576   0.564   0.624   0.656   0.695   0.726   0.807   0.743   0.735   0.711   0.687   0.653   0.615   0.585   0.585   0.596   0.570   0.626   0.610   0.627   0.579   0.563   0.573   0.596   0.610   0.601   0.616   0.600   0.633   0.657   0.716   0.714   0.753   0.725   0.707   0.707   0.703   0.667   0.694   0.653   0.679   0.680   0.680   0.686   0.654   0.682   0.664   0.666   0.705   0.695   0.674   0.623   0.626   0.626   0.664   0.652   0.664   0.626   0.658   0.625   0.631   0.671   0.682   0.640   0.655   0.618   0.594   0.587   0.604   0.561   0.619   0.633   0.621   0.606   0.618   0.597
    84.70    0.750   0.678   0.687   0.695   0.692   0.666   0.648   0.690   0.727   0.760   0.795   0.774   0.750   0.781   0.794   0.771   0.721   0.666   0.645   0.682   0.670   0.712   0.709   0.722   0.767   0.744   0.727   0.743   0.685   0.716   0.729   0.722   0.712   0.710   0.694   0.656   0.698   0.727   0.718   0.749   0.750   0.716   0.738   0.717   0.756   0.810   0.804   0.801   0.784   0.734   0.665   0.597   0.589   0.617   0.611   0.643   0.658   0.715   0.719   0.639   0.674   0.672   0.658   0.655   0.691   0.739   0.715   0.719   0.756   0.826   0.768   0.808   0.820   0.720   0.696   0.660   0.693   0.665   0.699   0.726   0.672   0.654   0.673   0.670   0.664   0.671   0.697   0.754   0.833   0.846   0.806   0.783   0.776   0.718   0.694   0.666   0.687   0.697   0.650   0.659   0.703   0.700   0.723   0.748   0.715   0.644   0.698   0.701   0.672   0.666   0.603   0.665   0.602   0.589   0.594   0.642   0.613   0.588   0.598   0.584   0.648   0.702   0.719   0.743   0.717   0.749   0.740   0.696   0.712   0.630   0.674   0.590   0.618   0.554   0.628   0.632   0.677   0.646   0.625   0.580   0.565   0.574   0.624   0.599   0.640   0.653   0.607   0.652   0.681   0.706   0.703   0.704   0.726   0.684   0.650   0.699   0.725   0.719   0.710   0.724   0.700   0.710   0.679   0.650   0.641   0.660   0.659   0.663   0.651   0.627   0.633   0.678   0.672   0.620   0.654   0.668   0.676   0.635   0.648   0.705   0.663   0.653   0.606   0.617   0.601   0.576   0.575   0.615   0.616   0.589   0.598   0.613   0.620
    75.40    0.710   0.716   0.682   0.707   0.704   0.713   0.712   0.724   0.743   0.713   0.734   0.735   0.766   0.772   0.738   0.740   0.681   0.671   0.651   0.698   0.675   0.732   0.746   0.764   0.733   0.750   0.709   0.731   0.672   0.670   0.682   0.686   0.724   0.731   0.711   0.682   0.671   0.675   0.722   0.711   0.711   0.767   0.742   0.759   0.760   0.749   0.741   0.759   0.741   0.689   0.628   0.626   0.620   0.583   0.589   0.603   0.652   0.642   0.687   0.659   0.615   0.633   0.629   0.637   0.668   0.682   0.736   0.739   0.749   0.805   0.844   0.861   0.802   0.748   0.683   0.696   0.683   0.681   0.652   0.675   0.686   0.662   0.708   0.734   0.707   0.706   0.723   0.737   0.776   0.803   0.800   0.794   0.774   0.761   0.753   0.686   0.673   0.688   0.643   0.648   0.651   0.661   0.707   0.688   0.683   0.691   0.656   0.674   0.664   0.675   0.656   0.665   0.625   0.604   0.599   0.606   0.605   0.594   0.611   0.621   0.657   0.697   0.736   0.738   0.720   0.753   0.737   0.721   0.736   0.707   0.651   0.663   0.636   0.615   0.661   0.645   0.695   0.656   0.625   0.587   0.591   0.568   0.620   0.653   0.634   0.646   0.654   0.658   0.650   0.688   0.717   0.686   0.730   0.702   0.687   0.697   0.716   0.711   0.715   0.729   0.733   0.682   0.696   0.653   0.620   0.604   0.642   0.650   0.617   0.656   0.664   0.650   0.670   0.665   0.667   0.691   0.700   0.648   0.692   0.747   0.685   0.686   0.621   0.590   0.584   0.572   0.610   0.613   0.622   0.623   0.637   0.627   0.640
    66.10    0.752   0.742   0.680   0.706   0.741   0.783   0.736   0.773   0.733   0.713   0.759   0.804   0.734   0.754   0.722   0.713   0.728   0.678   0.748   0.725   0.716   0.766   0.805   0.812   0.790   0.733   0.730   0.724   0.674   0.680   0.708   0.694   0.682   0.713   0.674   0.650   0.650   0.649   0.678   0.732   0.725   0.724   0.833   0.746   0.725   0.683   0.693   0.727   0.726   0.632   0.659   0.604   0.628   0.593   0.565   0.564   0.624   0.641   0.651   0.626   0.651   0.626   0.621   0.669   0.647   0.692   0.700   0.738   0.750   0.809   0.854   0.854   0.779   0.728   0.685   0.666   0.686   0.662   0.637   0.643   0.602   0.630   0.659   0.717   0.734   0.767   0.809   0.758   0.797   0.818   0.807   0.766   0.809   0.780   0.761   0.719   0.698   0.690   0.634   0.638   0.664   0.653   0.686   0.676   0.703   0.667   0.686   0.720   0.678   0.642   0.684   0.678   0.657   0.549   0.564   0.545   0.587   0.604   0.653   0.650   0.654   0.654   0.682   0.723   0.730   0.752   0.702   0.757   0.679   0.676   0.693   0.665   0.654   0.612   0.664   0.673   0.673   0.637   0.628   0.622   0.607   0.615   0.621   0.617   0.623   0.636   0.679   0.669   0.655   0.665   0.666   0.652   0.661   0.650   0.654   0.623   0.668   0.675   0.690   0.710   0.725   0.675   0.712   0.634   0.624   0.659   0.639   0.641   0.664   0.683   0.671   0.677   0.646   0.631   0.652   0.689   0.681   0.653   0.719   0.694   0.708   0.663   0.642   0.561   0.602   0.576   0.596   0.611   0.626   0.574   0.604   0.614   0.666
    56.80    0.765   0.768   0.726   0.708   0.743   0.778   0.808   0.797   0.838   0.749   0.763   0.778   0.750   0.744   0.720   0.735   0.724   0.747   0.756   0.787   0.738   0.792   0.806   0.780   0.766   0.768   0.717   0.754   0.714   0.688   0.669   0.708   0.701   0.739   0.666   0.632   0.653   0.669   0.644   0.745   0.766   0.780   0.789   0.743   0.725   0.697   0.678   0.690   0.696   0.710   0.629   0.592   0.605   0.579   0.578   0.624   0.597   0.643   0.616   0.669   0.718   0.654   0.626   0.666   0.692   0.685   0.667   0.678   0.705   0.751   0.813   0.812   0.753   0.720   0.709   0.630   0.688   0.677   0.695   0.636   0.638   0.638   0.645   0.661   0.705   0.740   0.739   0.715   0.775   0.807   0.819   0.767   0.734   0.756   0.732   0.718   0.699   0.656   0.653   0.640   0.639   0.666   0.703   0.730   0.727   0.674   0.688   0.723   0.726   0.681   0.683   0.692   0.625   0.561   0.566   0.582   0.591   0.625   0.671   0.632   0.704   0.702   0.670   0.712   0.716   0.705   0.697   0.688   0.710   0.721   0.717   0.696   0.662   0.624   0.676   0.676   0.690   0.638   0.633   0.634   0.612   0.616   0.629   0.600   0.591   0.635   0.649   0.648   0.611   0.635   0.617   0.575   0.612   0.619   0.627   0.610   0.657   0.683   0.656   0.708   0.729   0.701   0.727   0.677   0.611   0.654   0.668   0.678   0.656   0.645   0.696   0.688   0.659   0.640   0.622   0.677   0.695   0.683   0.708   0.680   0.695   0.713   0.735   0.633   0.650   0.620   0.620   0.645   0.620   0.593   0.595   0.632   0.660
    47.50    0.713   0.750   0.729   0.748   0.805   0.817   0.804   0.809   0.810   0.824   0.767   0.785   0.773   0.748   0.751   0.812   0.778   0.766   0.719   0.756   0.780   0.764   0.764   0.763   0.746   0.709   0.705   0.682   0.681   0.652   0.698   0.652   0.676   0.677   0.643   0.682   0.673   0.676   0.729   0.734   0.727   0.758   0.765   0.738   0.754   0.759   0.692   0.690   0.721   0.663   0.630   0.594   0.584   0.576   0.585   0.590   0.609   0.637   0.607   0.651   0.645   0.646   0.654   0.654   0.675   0.737   0.712   0.725   0.701   0.746   0.768   0.772   0.699   0.682   0.672   0.672   0.693   0.697   0.696   0.705   0.678   0.642   0.656   0.622   0.671   0.707   0.716   0.741   0.800   0.756   0.767   0.771   0.738   0.748   0.738   0.745   0.704   0.683   0.673   0.670   0.729   0.764   0.732   0.748   0.779   0.714   0.701   0.745   0.688   0.731   0.666   0.661   0.677   0.663   0.628   0.616   0.606   0.648   0.635   0.665   0.675   0.668   0.658   0.678   0.668   0.672   0.674   0.660   0.706   0.737   0.700   0.695   0.676   0.646   0.641   0.658   0.637   0.658   0.643   0.649   0.581   0.581   0.616   0.614   0.585   0.664   0.635   0.579   0.609   0.609   0.588   0.604   0.605   0.596   0.584   0.602   0.620   0.671   0.667   0.710   0.711   0.730   0.717   0.685   0.668   0.624   0.632   0.670   0.697   0.668   0.690   0.642   0.650   0.677   0.624   0.674   0.700   0.687   0.710   0.689   0.701   0.728   0.703   0.675   0.675   0.638   0.640   0.611   0.620   0.645   0.645   0.657   0.667
    38.20    0.665   0.700   0.745   0.732   0.794   0.812   0.794   0.755   0.766   0.826   0.800   0.835   0.763   0.779   0.775   0.792   0.825   0.797   0.733   0.738   0.739   0.764   0.736   0.771   0.711   0.717   0.704   0.690   0.676   0.645   0.709   0.719   0.697   0.697   0.674   0.709   0.731   0.739   0.727   0.684   0.708   0.696   0.679   0.689   0.691   0.721   0.719   0.702   0.683   0.658   0.651   0.610   0.586   0.601   0.600   0.601   0.677   0.667   0.625   0.646   0.651   0.620   0.644   0.679   0.660   0.659   0.611   0.660   0.669   0.709   0.705   0.731   0.749   0.753   0.680   0.701   0.702   0.758   0.721   0.697   0.703   0.713   0.649   0.660   0.694   0.677   0.682   0.731   0.761   0.749   0.754   0.749   0.778   0.717   0.732   0.749   0.716   0.703   0.693   0.714   0.725   0.753   0.769   0.710   0.699   0.672   0.679   0.720   0.757   0.731   0.668   0.702   0.678   0.702   0.664   0.631   0.666   0.646   0.674   0.627   0.665   0.672   0.621   0.618   0.652   0.637   0.652   0.625   0.649   0.729   0.688   0.670   0.661   0.648   0.643   0.645   0.656   0.653   0.616   0.639   0.636   0.592   0.622   0.590   0.622   0.604   0.637   0.625   0.592   0.558   0.601   0.591   0.596   0.591   0.596   0.579   0.606   0.645   0.662   0.712   0.746   0.689   0.676   0.647   0.651   0.660   0.655   0.649   0.645   0.677   0.678   0.690   0.628   0.673   0.663   0.705   0.737   0.753   0.712   0.708   0.696   0.670   0.637   0.627   0.613   0.657   0.700   0.661   0.643   0.695   0.698   0.683   0.659
    28.90    0.729   0.705   0.740   0.743   0.766   0.819   0.706   0.739   0.759   0.745   0.798   0.756   0.769   0.734   0.767   0.799   0.784   0.748   0.778   0.776   0.750   0.755   0.688   0.675   0.715   0.706   0.664   0.675   0.737   0.684   0.675   0.744   0.703   0.735   0.720   0.699   0.708   0.702   0.744   0.666   0.684   0.662   0.709   0.666   0.714   0.715   0.715   0.719   0.707   0.679   0.652   0.646   0.602   0.586   0.599   0.623   0.689   0.683   0.648   0.641   0.622   0.628   0.607   0.620   0.591   0.600   0.614   0.647   0.656   0.674   0.749   0.762   0.738   0.741   0.704   0.701   0.747   0.781   0.740   0.743   0.739   0.764   0.739   0.706   0.705   0.629   0.685   0.706   0.732   0.751   0.718   0.748   0.716   0.731   0.759   0.743   0.783   0.763   0.777   0.738   0.701   0.664   0.666   0.683   0.643   0.579   0.665   0.706   0.733   0.704   0.690   0.700   0.696   0.670   0.698   0.689   0.711   0.667   0.641   0.669   0.639   0.620   0.587   0.626   0.613   0.635   0.653   0.650   0.670   0.664   0.653   0.676   0.641   0.663   0.647   0.689   0.656   0.621   0.622   0.595   0.613   0.620   0.576   0.631   0.636   0.602   0.625   0.625   0.599   0.570   0.568   0.593   0.619   0.578   0.581   0.608   0.612   0.654   0.673   0.683   0.707   0.654   0.623   0.684   0.673   0.670   0.673   0.677   0.699   0.698   0.692   0.722   0.728   0.643   0.672   0.703   0.730   0.716   0.730   0.669   0.649   0.602   0.650   0.630   0.638   0.629   0.638   0.683   0.734   0.679   0.727   0.702   0.684
    19.60    0.721   0.738   0.771   0.708   0.753   0.760   0.721   0.780   0.741   0.793   0.763   0.793   0.779   0.728   0.767   0.818   0.819   0.775   0.781   0.802   0.747   0.794   0.749   0.722   0.677   0.658   0.687   0.698   0.714   0.720   0.721   0.697   0.705   0.715   0.762   0.707   0.713   0.690   0.682   0.666   0.626   0.653   0.655   0.681   0.721   0.683   0.703   0.696   0.673   0.663   0.636   0.618   0.618   0.624   0.667   0.716   0.680   0.682   0.635   0.654   0.607   0.609   0.596   0.614   0.568   0.593   0.602   0.677   0.685   0.715   0.740   0.743   0.707   0.765   0.728   0.712   0.698   0.744   0.703   0.708   0.700   0.720   0.763   0.745   0.729   0.655   0.622   0.655   0.719   0.711   0.693   0.701   0.713   0.737   0.788   0.769   0.821   0.826   0.756   0.729   0.710   0.642   0.656   0.601   0.678   0.654   0.702   0.751   0.705   0.741   0.719   0.693   0.692   0.662   0.643   0.669   0.674   0.686   0.671   0.658   0.617   0.573   0.570   0.607   0.607   0.610   0.622   0.659   0.633   0.628   0.624   0.636   0.637   0.648   0.709   0.703   0.654   0.627   0.615   0.591   0.630   0.634   0.577   0.641   0.610   0.621   0.614   0.585   0.560   0.579   0.577   0.577   0.592   0.591   0.606   0.636   0.612   0.628   0.652   0.672   0.657   0.631   0.628   0.651   0.665   0.672   0.640   0.642   0.731   0.741   0.699   0.673   0.680   0.695   0.666   0.666   0.648   0.667   0.664   0.636   0.658   0.600   0.642   0.660   0.657   0.701   0.687   0.677   0.664   0.696   0.696   0.707   0.655
    10.30    0.709   0.764   0.779   0.732   0.747   0.745   0.798   0.755   0.791   0.800   0.758   0.763   0.736   0.741   0.733   0.793   0.760   0.753   0.749   0.726   0.768   0.823   0.792   0.702   0.648   0.649   0.681   0.666   0.708   0.725   0.704   0.701   0.688   0.679   0.742   0.707   0.680   0.681   0.687   0.643   0.686   0.675   0.667   0.691   0.674   0.630   0.678   0.677   0.699   0.631   0.626   0.621   0.655   0.679   0.714   0.712   0.697   0.691   0.639   0.610   0.601   0.618   0.610   0.576   0.595   0.625   0.666   0.700   0.699   0.732   0.771   0.747   0.744   0.740   0.757   0.733   0.713   0.748   0.735   0.755   0.737   0.734   0.776   0.737   0.773   0.714   0.643   0.636   0.710   0.726   0.719   0.699   0.714   0.793   0.792   0.805   0.788   0.775   0.788   0.733   0.710   0.682   0.649   0.672   0.722   0.725   0.733   0.730   0.690   0.721   0.718   0.713   0.681   0.645   0.628   0.619   0.617   0.658   0.655   0.694   0.607   0.618   0.585   0.566   0.609   0.604   0.570   0.613   0.639   0.630   0.631   0.684   0.647   0.668   0.642   0.654   0.644   0.634   0.673   0.652   0.642   0.662   0.640   0.636   0.630   0.673   0.606   0.595   0.598   0.614   0.632   0.615   0.605   0.615   0.603   0.631   0.630   0.618   0.661   0.692   0.697   0.655   0.678   0.637   0.641   0.649   0.657   0.677   0.706   0.717   0.653   0.651   0.677   0.715   0.654   0.640   0.604   0.633   0.651   0.645   0.626   0.635   0.657   0.633   0.661   0.679   0.688   0.672   0.659   0.716   0.701   0.664   0.702
     1.00    0.716   0.710   0.710   0.732   0.721   0.761   0.756   0.749   0.775   0.772   0.739   0.741   0.732   0.765   0.697   0.727   0.747   0.744   0.769   0.802   0.741   0.773   0.801   0.716   0.689   0.671   0.692   0.671   0.640   0.717   0.705   0.691   0.687   0.696   0.701   0.685   0.659   0.651   0.640   0.701   0.686   0.694   0.679   0.706   0.738   0.682   0.655   0.685   0.686   0.638   0.609   0.651   0.684   0.712   0.710   0.718   0.696   0.704   0.638   0.655   0.657   0.622   0.616   0.602   0.603   0.652   0.682   0.707   0.692   0.704   0.710   0.708   0.723   0.741   0.766   0.736   0.705   0.697   0.749   0.733   0.754   0.723   0.736   0.728   0.705   0.743   0.685   0.644   0.681   0.713   0.720   0.731   0.745   0.786   0.729   0.803   0.804   0.788   0.723   0.777   0.721   0.678   0.694   0.671   0.702   0.693   0.715   0.724   0.756   0.771   0.745   0.732   0.697   0.608   0.638   0.629   0.665   0.657   0.659   0.633   0.608   0.608   0.559   0.565   0.585   0.579   0.580   0.584   0.616   0.621   0.646   0.645   0.642   0.609   0.626   0.657   0.623   0.610   0.634   0.669   0.689   0.630   0.644   0.676   0.698   0.687   0.667   0.634   0.589   0.616   0.670   0.657   0.659   0.667   0.676   0.675   0.642   0.612   0.639   0.646   0.664   0.671   0.696   0.679   0.698   0.702   0.665   0.692   0.703   0.689   0.695   0.710   0.717   0.632   0.680   0.651   0.672   0.645   0.672   0.651   0.647   0.671   0.657   0.627   0.672   0.620   0.676   0.672   0.705   0.707   0.672   0.678   0.679

   Height   Standard deviation at grid points for the v component:
   354.40    0.590   0.589   0.596   0.599   0.608   0.633   0.607   0.633   0.603   0.601   0.591   0.591   0.567   0.580   0.580   0.607   0.623   0.624   0.591   0.572   0.599   0.613   0.586   0.628   0.639   0.600   0.594   0.594   0.581   0.555   0.544   0.567   0.573   0.557   0.532   0.575   0.576   0.561   0.567   0.539   0.501   0.535   0.535   0.546   0.596   0.630   0.607   0.612   0.592   0.588   0.601   0.605   0.574   0.597   0.591   0.612   0.622   0.646   0.639   0.633   0.626   0.655   0.643   0.649   0.601   0.606   0.622   0.620   0.612   0.615   0.618   0.622   0.612   0.631   0.600   0.619   0.608   0.567   0.580   0.591   0.569   0.562   0.545   0.557   0.573   0.575   0.590   0.588   0.598   0.594   0.618   0.635   0.652   0.640   0.622   0.594   0.578   0.545   0.547   0.581   0.548   0.522   0.568   0.579   0.612   0.603   0.546   0.550   0.526   0.545   0.536   0.545   0.573   0.537   0.571   0.540   0.537   0.539   0.589   0.606   0.613   0.558   0.580   0.540   0.572   0.590   0.588   0.627   0.632   0.603   0.616   0.608   0.610   0.646   0.646   0.613   0.629   0.617   0.635   0.605   0.604   0.615   0.628   0.650   0.613   0.616   0.622   0.605   0.600   0.608   0.615   0.614   0.565   0.580   0.533   0.570   0.557   0.544   0.517   0.566   0.584   0.561   0.566   0.577   0.565   0.545   0.546   0.563   0.560   0.568   0.579   0.610   0.624   0.647   0.678   0.719   0.692   0.663   0.683   0.669   0.671   0.634   0.619   0.599   0.622   0.639   0.646   0.649   0.617   0.624   0.644   0.619   0.604
   345.10    0.577   0.582   0.595   0.626   0.629   0.616   0.625   0.617   0.608   0.620   0.621   0.615   0.587   0.598   0.627   0.644   0.635   0.570   0.572   0.579   0.599   0.582   0.603   0.608   0.623   0.612   0.596   0.587   0.549   0.545   0.541   0.569   0.557   0.565   0.531   0.556   0.555   0.539   0.570   0.538   0.494   0.483   0.537   0.570   0.580   0.630   0.626   0.599   0.618   0.615   0.631   0.627   0.620   0.591   0.622   0.652   0.660   0.687   0.646   0.645   0.617   0.637   0.649   0.638   0.636   0.623   0.643   0.595   0.622   0.638   0.647   0.632   0.613   0.629   0.580   0.591   0.564   0.581   0.592   0.547   0.546   0.549   0.525   0.534   0.574   0.583   0.615   0.582   0.591   0.596   0.610   0.634   0.653   0.641   0.605   0.591   0.549   0.559   0.561   0.574   0.550   0.570   0.597   0.626   0.614   0.603   0.574   0.553   0.534   0.568   0.552   0.559   0.563   0.532   0.552   0.560   0.573   0.596   0.600   0.599   0.587   0.583   0.561   0.577   0.603   0.630   0.624   0.601   0.601   0.610   0.600   0.581   0.624   0.629   0.616   0.582   0.615   0.638   0.644   0.630   0.595   0.620   0.632   0.633   0.654   0.666   0.657   0.602   0.578   0.553   0.583   0.591   0.605   0.578   0.556   0.551   0.546   0.559   0.524   0.563   0.597   0.564   0.556   0.552   0.566   0.555   0.530   0.549   0.585   0.588   0.604   0.635   0.603   0.641   0.664   0.691   0.703   0.676   0.642   0.638   0.646   0.635   0.639   0.628   0.609   0.613   0.607   0.646   0.614   0.622   0.643   0.624   0.628
   335.80    0.582   0.608   0.616   0.618   0.594   0.621   0.606   0.603   0.606   0.624   0.619   0.591   0.589   0.589   0.648   0.637   0.646   0.625   0.599   0.601   0.592   0.615   0.626   0.636   0.663   0.638   0.605   0.588   0.593   0.529   0.537   0.564   0.560   0.577   0.528   0.583   0.580   0.552   0.541   0.529   0.520   0.519   0.539   0.590   0.593   0.601   0.614   0.610   0.582   0.591   0.622   0.614   0.620   0.615   0.598   0.660   0.644   0.672   0.648   0.631   0.638   0.607   0.633   0.638   0.621   0.648   0.662   0.649   0.620   0.625   0.610   0.606   0.611   0.606   0.561   0.585   0.576   0.594   0.590   0.563   0.522   0.511   0.489   0.507   0.538   0.579   0.602   0.608   0.587   0.595   0.615   0.592   0.623   0.636   0.628   0.588   0.552   0.550   0.574   0.579   0.584   0.582   0.629   0.632   0.610   0.588   0.555   0.584   0.552   0.565   0.541   0.549   0.566   0.556   0.595   0.591   0.609   0.617   0.636   0.642   0.619   0.595   0.616   0.593   0.612   0.644   0.633   0.621   0.598   0.585   0.577   0.594   0.583   0.583   0.596   0.609   0.613   0.647   0.656   0.631   0.628   0.635   0.661   0.647   0.656   0.669   0.633   0.628   0.613   0.599   0.579   0.591   0.586   0.567   0.522   0.536   0.536   0.527   0.548   0.556   0.573   0.548   0.536   0.560   0.534   0.533   0.526   0.563   0.567   0.582   0.602   0.619   0.612   0.663   0.661   0.650   0.669   0.638   0.610   0.607   0.636   0.647   0.638   0.593   0.609   0.606   0.600   0.610   0.637   0.609   0.638   0.637   0.612
   326.50    0.558   0.576   0.598   0.602   0.634   0.625   0.618   0.615   0.607   0.602   0.581   0.581   0.596   0.625   0.631   0.612   0.597   0.616   0.626   0.603   0.614   0.633   0.639   0.671   0.661   0.605   0.582   0.586   0.582   0.566   0.544   0.586   0.571   0.559   0.562   0.577   0.585   0.553   0.529   0.539   0.567   0.576   0.565   0.591   0.591   0.601   0.601   0.573   0.584   0.576   0.584   0.619   0.659   0.638   0.620   0.661   0.636   0.677   0.663   0.623   0.616   0.599   0.594   0.639   0.611   0.652   0.647   0.643   0.642   0.633   0.606   0.620   0.594   0.586   0.560   0.564   0.572   0.559   0.536   0.555   0.535   0.513   0.509   0.531   0.530   0.539   0.585   0.575   0.567   0.579   0.588   0.582   0.618   0.610   0.600   0.568   0.526   0.512   0.565   0.576   0.571   0.593   0.641   0.634   0.620   0.598   0.588   0.606   0.584   0.549   0.559   0.563   0.567   0.550   0.580   0.612   0.618   0.606   0.639   0.611   0.608   0.618   0.631   0.643   0.612   0.646   0.651   0.625   0.599   0.593   0.592   0.584   0.573   0.610   0.606   0.630   0.636   0.617   0.633   0.632   0.630   0.645   0.667   0.651   0.665   0.647   0.619   0.641   0.611   0.619   0.591   0.603   0.586   0.597   0.571   0.563   0.559   0.535   0.552   0.558   0.548   0.543   0.535   0.536   0.550   0.543   0.538   0.584   0.590   0.581   0.609   0.619   0.648   0.641   0.651   0.649   0.669   0.639   0.608   0.633   0.620   0.611   0.612   0.619   0.614   0.599   0.611   0.594   0.613   0.623   0.609   0.610   0.590
[...]
   103.30    0.367   0.370   0.373   0.373   0.354   0.349   0.345   0.349   0.350   0.331   0.347   0.350   0.361   0.366   0.366   0.364   0.360   0.364   0.357   0.366   0.352   0.359   0.360   0.347   0.351   0.356   0.346   0.355   0.333   0.339   0.341   0.343   0.353   0.354   0.364   0.360   0.336   0.352   0.354   0.346   0.354   0.357   0.362   0.355   0.355   0.350   0.357   0.343   0.358   0.356   0.367   0.379   0.369   0.349   0.334   0.354   0.358   0.362   0.358   0.369   0.373   0.360   0.344   0.349   0.343   0.340   0.351   0.359   0.353   0.355   0.352   0.345   0.343   0.353   0.341   0.344   0.339   0.341   0.349   0.356   0.351   0.347   0.350   0.357   0.344   0.342   0.349   0.347   0.350   0.348   0.364   0.357   0.355   0.367   0.371   0.364   0.360   0.345   0.347   0.341   0.355   0.344   0.363   0.351   0.352   0.368   0.382   0.356   0.331   0.342   0.342   0.338   0.355   0.358   0.368   0.369   0.383   0.379   0.362   0.360   0.357   0.363   0.355   0.358   0.348   0.353   0.351   0.349   0.357   0.359   0.369   0.372   0.373   0.359   0.374   0.378   0.361   0.365   0.361   0.362   0.371   0.372   0.380   0.366   0.355   0.357   0.360   0.347   0.363   0.351   0.358   0.358   0.357   0.352   0.357   0.360   0.358   0.364   0.363   0.360   0.355   0.355   0.349   0.353   0.351   0.367   0.351   0.355   0.356   0.371   0.370   0.356   0.355   0.350   0.349   0.349   0.363   0.358   0.360   0.353   0.345   0.344   0.352   0.351   0.356   0.344   0.359   0.368   0.355   0.363   0.358   0.341   0.362
    94.00    0.368   0.369   0.372   0.365   0.360   0.355   0.350   0.342   0.345   0.346   0.358   0.352   0.360   0.366   0.361   0.349   0.353   0.351   0.361   0.370   0.360   0.359   0.358   0.362   0.352   0.365   0.361   0.360   0.339   0.348   0.347   0.339   0.344   0.352   0.346   0.356   0.345   0.351   0.345   0.342   0.349   0.363   0.356   0.354   0.346   0.340   0.342   0.336   0.345   0.349   0.357   0.360   0.364   0.368   0.358   0.364   0.363   0.355   0.364   0.355   0.353   0.362   0.357   0.352   0.336   0.343   0.350   0.351   0.348   0.349   0.348   0.356   0.349   0.346   0.345   0.348   0.344   0.350   0.349   0.361   0.360   0.355   0.357   0.357   0.355   0.330   0.348   0.347   0.359   0.356   0.355   0.360   0.358   0.360   0.368   0.367   0.363   0.350   0.336   0.329   0.342   0.340   0.355   0.361   0.352   0.371   0.370   0.353   0.350   0.352   0.356   0.350   0.363   0.371   0.365   0.362   0.372   0.368   0.365   0.369   0.354   0.366   0.351   0.345   0.354   0.364   0.351   0.344   0.360   0.363   0.361   0.360   0.376   0.378   0.374   0.361   0.356   0.346   0.362   0.360   0.367   0.367   0.362   0.354   0.350   0.351   0.356   0.342   0.352   0.359   0.341   0.348   0.341   0.350   0.351   0.345   0.356   0.376   0.369   0.348   0.345   0.337   0.350   0.352   0.341   0.365   0.355   0.354   0.363   0.369   0.369   0.348   0.365   0.365   0.352   0.354   0.353   0.344   0.355   0.343   0.347   0.353   0.367   0.360   0.350   0.351   0.350   0.370   0.353   0.359   0.351   0.362   0.370
    84.70    0.368   0.368   0.362   0.366   0.352   0.364   0.357   0.354   0.352   0.343   0.347   0.357   0.359   0.360   0.346   0.350   0.351   0.351   0.372   0.371   0.352   0.352   0.371   0.375   0.375   0.369   0.356   0.366   0.357   0.352   0.346   0.342   0.343   0.343   0.350   0.344   0.358   0.342   0.352   0.346   0.346   0.357   0.351   0.363   0.357   0.343   0.348   0.339   0.344   0.347   0.354   0.361   0.348   0.362   0.363   0.352   0.344   0.365   0.361   0.348   0.353   0.350   0.357   0.347   0.347   0.357   0.356   0.357   0.362   0.354   0.365   0.369   0.359   0.350   0.345   0.356   0.341   0.355   0.352   0.355   0.359   0.361   0.349   0.347   0.337   0.332   0.353   0.358   0.353   0.349   0.348   0.362   0.352   0.357   0.363   0.366   0.365   0.348   0.351   0.334   0.328   0.336   0.338   0.355   0.359   0.367   0.365   0.358   0.358   0.345   0.358   0.363   0.358   0.370   0.364   0.365   0.359   0.351   0.364   0.352   0.346   0.365   0.350   0.337   0.353   0.352   0.337   0.343   0.356   0.364   0.364   0.352   0.349   0.361   0.368   0.356   0.354   0.351   0.348   0.355   0.360   0.356   0.354   0.341   0.352   0.353   0.346   0.359   0.360   0.360   0.348   0.346   0.351   0.340   0.345   0.359   0.371   0.373   0.373   0.353   0.359   0.348   0.352   0.363   0.361   0.361   0.354   0.363   0.344   0.341   0.350   0.355   0.368   0.365   0.354   0.356   0.358   0.352   0.349   0.344   0.354   0.357   0.359   0.357   0.351   0.354   0.350   0.363   0.345   0.344   0.357   0.362   0.362
    75.40    0.358   0.352   0.360   0.367   0.363   0.365   0.364   0.353   0.360   0.365   0.361   0.354   0.353   0.348   0.360   0.346   0.359   0.364   0.369   0.353   0.352   0.344   0.363   0.370   0.366   0.358   0.361   0.348   0.352   0.359   0.359   0.342   0.347   0.355   0.344   0.358   0.353   0.338   0.343   0.347   0.350   0.345   0.360   0.351   0.350   0.347   0.344   0.334   0.346   0.343   0.357   0.365   0.357   0.360   0.353   0.353   0.345   0.349   0.346   0.345   0.356   0.357   0.352   0.351   0.357   0.356   0.364   0.366   0.356   0.351   0.358   0.364   0.365   0.357   0.360   0.354   0.352   0.353   0.353   0.343   0.349   0.343   0.342   0.347   0.340   0.351   0.354   0.354   0.358   0.361   0.347   0.357   0.349   0.358   0.352   0.370   0.365   0.354   0.355   0.337   0.327   0.335   0.331   0.339   0.354   0.366   0.361   0.365   0.364   0.361   0.356   0.368   0.368   0.372   0.370   0.361   0.364   0.355   0.353   0.352   0.350   0.356   0.351   0.361   0.356   0.358   0.343   0.359   0.355   0.357   0.357   0.362   0.363   0.361   0.349   0.355   0.346   0.340   0.341   0.345   0.358   0.356   0.361   0.358   0.347   0.350   0.340   0.341   0.351   0.354   0.348   0.339   0.336   0.349   0.345   0.358   0.354   0.364   0.360   0.351   0.348   0.363   0.357   0.363   0.349   0.353   0.361   0.365   0.350   0.337   0.353   0.349   0.361   0.356   0.351   0.345   0.349   0.352   0.338   0.350   0.346   0.349   0.362   0.356   0.350   0.350   0.349   0.350   0.348   0.349   0.353   0.346   0.351
    66.10    0.358   0.356   0.361   0.370   0.368   0.372   0.375   0.364   0.357   0.363   0.353   0.356   0.348   0.355   0.351   0.340   0.350   0.351   0.355   0.346   0.356   0.363   0.353   0.346   0.357   0.350   0.352   0.342   0.353   0.353   0.354   0.361   0.348   0.354   0.354   0.338   0.356   0.341   0.348   0.354   0.352   0.363   0.352   0.349   0.357   0.351   0.343   0.339   0.347   0.343   0.350   0.352   0.349   0.358   0.352   0.348   0.345   0.355   0.346   0.332   0.346   0.347   0.351   0.349   0.357   0.375   0.361   0.366   0.365   0.370   0.357   0.362   0.361   0.354   0.351   0.335   0.342   0.352   0.358   0.361   0.341   0.337   0.344   0.351   0.342   0.346   0.354   0.346   0.360   0.363   0.351   0.346   0.356   0.358   0.356   0.364   0.366   0.363   0.357   0.349   0.350   0.334   0.326   0.336   0.346   0.374   0.355   0.361   0.366   0.371   0.369   0.368   0.373   0.366   0.353   0.347   0.362   0.356   0.355   0.353   0.354   0.357   0.362   0.370   0.362   0.359   0.358   0.351   0.354   0.356   0.370   0.355   0.355   0.352   0.352   0.354   0.354   0.345   0.349   0.355   0.361   0.364   0.358   0.355   0.354   0.352   0.346   0.348   0.350   0.349   0.345   0.345   0.354   0.351   0.351   0.357   0.354   0.347   0.348   0.340   0.352   0.357   0.371   0.361   0.357   0.361   0.350   0.336   0.342   0.343   0.345   0.350   0.349   0.350   0.353   0.360   0.350   0.348   0.335   0.337   0.339   0.346   0.348   0.346   0.348   0.345   0.356   0.363   0.348   0.338   0.351   0.352   0.353
    56.80    0.357   0.362   0.368   0.370   0.367   0.363   0.369   0.362   0.344   0.350   0.360   0.355   0.348   0.350   0.343   0.355   0.352   0.343   0.349   0.349   0.343   0.346   0.351   0.348   0.350   0.351   0.342   0.351   0.358   0.355   0.336   0.349   0.347   0.350   0.359   0.353   0.345   0.345   0.363   0.364   0.355   0.349   0.352   0.358   0.352   0.355   0.350   0.338   0.343   0.345   0.344   0.352   0.351   0.348   0.343   0.344   0.353   0.356   0.353   0.353   0.356   0.347   0.355   0.348   0.363   0.361   0.368   0.370   0.367   0.350   0.359   0.355   0.356   0.347   0.355   0.341   0.349   0.361   0.352   0.355   0.341   0.344   0.340   0.343   0.337   0.341   0.355   0.358   0.363   0.348   0.340   0.345   0.357   0.354   0.358   0.357   0.357   0.360   0.356   0.353   0.348   0.335   0.350   0.359   0.346   0.367   0.368   0.375   0.385   0.373   0.369   0.363   0.360   0.358   0.354   0.355   0.363   0.361   0.362   0.361   0.362   0.354   0.364   0.366   0.366   0.359   0.358   0.359   0.349   0.363   0.365   0.363   0.350   0.344   0.335   0.350   0.352   0.348   0.361   0.364   0.358   0.363   0.358   0.358   0.362   0.362   0.353   0.353   0.353   0.353   0.363   0.361   0.351   0.354   0.359   0.357   0.361   0.359   0.353   0.349   0.350   0.351   0.362   0.361   0.349   0.356   0.350   0.347   0.342   0.337   0.348   0.347   0.360   0.356   0.344   0.347   0.352   0.340   0.346   0.348   0.339   0.342   0.346   0.349   0.343   0.339   0.354   0.364   0.353   0.356   0.351   0.344   0.353
    47.50    0.353   0.362   0.368   0.375   0.367   0.366   0.362   0.356   0.346   0.351   0.360   0.362   0.360   0.365   0.363   0.357   0.359   0.348   0.349   0.354   0.343   0.349   0.352   0.362   0.358   0.355   0.351   0.356   0.359   0.346   0.349   0.348   0.347   0.366   0.357   0.348   0.345   0.329   0.348   0.352   0.352   0.345   0.357   0.349   0.356   0.354   0.354   0.343   0.341   0.344   0.345   0.348   0.340   0.350   0.353   0.351   0.355   0.355   0.351   0.344   0.358   0.349   0.359   0.353   0.355   0.359   0.357   0.368   0.361   0.350   0.356   0.349   0.351   0.347   0.352   0.348   0.335   0.347   0.348   0.346   0.344   0.342   0.347   0.351   0.347   0.351   0.357   0.348   0.365   0.364   0.351   0.350   0.350   0.359   0.363   0.356   0.351   0.354   0.363   0.355   0.347   0.353   0.360   0.346   0.364   0.368   0.370   0.375   0.374   0.363   0.369   0.354   0.356   0.346   0.337   0.349   0.356   0.347   0.349   0.354   0.355   0.351   0.358   0.358   0.366   0.360   0.341   0.346   0.361   0.363   0.361   0.355   0.349   0.348   0.348   0.342   0.350   0.344   0.344   0.351   0.355   0.363   0.367   0.372   0.360   0.367   0.347   0.341   0.342   0.346   0.359   0.341   0.352   0.339   0.345   0.355   0.357   0.351   0.351   0.344   0.350   0.356   0.355   0.353   0.351   0.353   0.356   0.352   0.353   0.341   0.348   0.332   0.345   0.359   0.359   0.351   0.355   0.344   0.351   0.337   0.333   0.337   0.347   0.348   0.335   0.343   0.361   0.363   0.362   0.368   0.351   0.361   0.355
    38.20    0.365   0.357   0.367   0.359   0.374   0.371   0.361   0.355   0.365   0.357   0.367   0.356   0.347   0.361   0.366   0.361   0.354   0.347   0.341   0.347   0.352   0.352   0.363   0.356   0.351   0.361   0.357   0.349   0.351   0.354   0.354   0.346   0.349   0.351   0.337   0.335   0.351   0.340   0.339   0.327   0.321   0.341   0.343   0.348   0.352   0.342   0.344   0.346   0.346   0.345   0.334   0.338   0.353   0.365   0.360   0.354   0.347   0.359   0.343   0.363   0.369   0.360   0.359   0.359   0.356   0.369   0.362   0.358   0.352   0.349   0.354   0.354   0.344   0.352   0.346   0.352   0.349   0.342   0.343   0.335   0.346   0.354   0.359   0.366   0.353   0.359   0.367   0.352   0.354   0.358   0.362   0.358   0.348   0.352   0.359   0.334   0.341   0.341   0.353   0.344   0.361   0.359   0.353   0.366   0.365   0.370   0.378   0.364   0.370   0.366   0.361   0.356   0.353   0.348   0.350   0.339   0.339   0.351   0.347   0.357   0.353   0.351   0.348   0.350   0.363   0.347   0.338   0.336   0.336   0.350   0.359   0.362   0.352   0.358   0.360   0.346   0.339   0.343   0.351   0.344   0.349   0.360   0.357   0.360   0.344   0.353   0.344   0.346   0.352   0.351   0.348   0.346   0.352   0.345   0.348   0.351   0.352   0.340   0.351   0.346   0.357   0.350   0.354   0.356   0.343   0.354   0.358   0.369   0.372   0.357   0.349   0.336   0.338   0.344   0.345   0.346   0.341   0.351   0.352   0.347   0.341   0.342   0.332   0.337   0.337   0.336   0.355   0.367   0.368   0.374   0.366   0.355   0.350
    28.90    0.359   0.361   0.354   0.373   0.362   0.363   0.352   0.369   0.357   0.374   0.365   0.355   0.340   0.346   0.341   0.349   0.348   0.347   0.353   0.355   0.352   0.366   0.355   0.358   0.357   0.356   0.361   0.354   0.351   0.350   0.356   0.356   0.351   0.336   0.340   0.348   0.354   0.357   0.351   0.345   0.343   0.336   0.345   0.334   0.347   0.353   0.331   0.346   0.349   0.345   0.347   0.352   0.355   0.360   0.362   0.353   0.350   0.344   0.360   0.358   0.363   0.354   0.364   0.362   0.362   0.364   0.365   0.356   0.349   0.345   0.356   0.362   0.345   0.346   0.351   0.349   0.353   0.350   0.339   0.350   0.349   0.357   0.351   0.353   0.358   0.354   0.362   0.350   0.346   0.362   0.366   0.355   0.360   0.355   0.349   0.327   0.342   0.345   0.359   0.359   0.355   0.361   0.363   0.359   0.363   0.364   0.372   0.365   0.361   0.358   0.369   0.363   0.362   0.360   0.363   0.345   0.342   0.345   0.353   0.346   0.355   0.358   0.362   0.352   0.334   0.335   0.349   0.345   0.354   0.356   0.360   0.350   0.337   0.344   0.351   0.348   0.343   0.337   0.348   0.344   0.340   0.340   0.352   0.352   0.332   0.345   0.345   0.344   0.343   0.350   0.366   0.345   0.344   0.347   0.356   0.347   0.353   0.351   0.349   0.354   0.345   0.346   0.356   0.358   0.354   0.358   0.357   0.358   0.374   0.354   0.351   0.342   0.349   0.343   0.346   0.332   0.334   0.345   0.349   0.356   0.349   0.345   0.350   0.354   0.351   0.342   0.345   0.356   0.353   0.361   0.365   0.364   0.354
    19.60    0.344   0.359   0.370   0.374   0.371   0.367   0.368   0.362   0.364   0.374   0.356   0.355   0.332   0.339   0.339   0.346   0.350   0.347   0.347   0.354   0.364   0.353   0.358   0.360   0.365   0.358   0.360   0.354   0.348   0.358   0.349   0.360   0.349   0.353   0.354   0.357   0.348   0.347   0.355   0.360   0.346   0.339   0.335   0.346   0.343   0.344   0.339   0.355   0.350   0.351   0.349   0.348   0.363   0.365   0.349   0.344   0.345   0.354   0.354   0.364   0.357   0.364   0.354   0.369   0.375   0.371   0.352   0.353   0.340   0.347   0.352   0.362   0.347   0.351   0.354   0.348   0.342   0.333   0.350   0.351   0.354   0.353   0.364   0.362   0.350   0.347   0.346   0.362   0.355   0.364   0.357   0.351   0.353   0.345   0.344   0.326   0.331   0.341   0.350   0.351   0.346   0.356   0.357   0.360   0.367   0.347   0.361   0.365   0.362   0.362   0.375   0.382   0.379   0.375   0.356   0.346   0.345   0.338   0.342   0.345   0.354   0.358   0.354   0.344   0.345   0.338   0.343   0.349   0.355   0.363   0.371   0.360   0.350   0.346   0.348   0.345   0.341   0.345   0.345   0.340   0.353   0.347   0.361   0.358   0.342   0.341   0.339   0.351   0.342   0.350   0.353   0.340   0.332   0.335   0.346   0.359   0.340   0.340   0.344   0.350   0.346   0.355   0.358   0.357   0.352   0.350   0.357   0.353   0.364   0.359   0.360   0.348   0.340   0.349   0.342   0.331   0.332   0.340   0.355   0.347   0.354   0.354   0.356   0.354   0.357   0.342   0.340   0.341   0.362   0.353   0.352   0.363   0.362
    10.30    0.360   0.367   0.357   0.369   0.371   0.361   0.379   0.356   0.350   0.357   0.361   0.363   0.345   0.341   0.361   0.351   0.357   0.348   0.354   0.358   0.348   0.349   0.351   0.351   0.358   0.347   0.347   0.353   0.353   0.350   0.364   0.359   0.348   0.355   0.356   0.363   0.347   0.351   0.358   0.360   0.346   0.348   0.345   0.357   0.347   0.344   0.341   0.340   0.342   0.348   0.348   0.352   0.360   0.357   0.363   0.357   0.358   0.361   0.349   0.363   0.373   0.371   0.357   0.370   0.380   0.361   0.355   0.354   0.343   0.344   0.348   0.352   0.353   0.350   0.344   0.343   0.347   0.349   0.358   0.357   0.371   0.366   0.360   0.352   0.358   0.343   0.349   0.370   0.372   0.350   0.367   0.357   0.345   0.351   0.353   0.349   0.352   0.341   0.351   0.353   0.355   0.349   0.362   0.356   0.362   0.371   0.359   0.367   0.350   0.363   0.375   0.378   0.359   0.359   0.365   0.344   0.351   0.347   0.347   0.349   0.356   0.357   0.353   0.340   0.340   0.329   0.336   0.347   0.350   0.356   0.371   0.366   0.362   0.355   0.354   0.349   0.352   0.350   0.353   0.350   0.353   0.351   0.349   0.352   0.349   0.340   0.331   0.332   0.346   0.349   0.346   0.337   0.341   0.346   0.342   0.353   0.339   0.346   0.340   0.356   0.357   0.354   0.352   0.367   0.358   0.349   0.344   0.358   0.364   0.356   0.347   0.347   0.338   0.344   0.348   0.347   0.345   0.347   0.338   0.341   0.359   0.368   0.346   0.347   0.350   0.356   0.353   0.345   0.346   0.355   0.364   0.364   0.366
     1.00    0.356   0.361   0.362   0.363   0.371   0.368   0.370   0.364   0.353   0.353   0.350   0.366   0.360   0.360   0.361   0.370   0.372   0.364   0.353   0.353   0.337   0.344   0.355   0.364   0.357   0.349   0.351   0.348   0.360   0.350   0.349   0.359   0.341   0.362   0.361   0.353   0.354   0.353   0.358   0.354   0.347   0.352   0.352   0.354   0.345   0.338   0.337   0.342   0.350   0.344   0.349   0.339   0.351   0.348   0.347   0.361   0.363   0.365   0.363   0.351   0.366   0.354   0.353   0.356   0.370   0.370   0.353   0.348   0.344   0.345   0.339   0.352   0.352   0.364   0.355   0.354   0.361   0.367   0.356   0.358   0.365   0.378   0.371   0.364   0.365   0.355   0.363   0.371   0.376   0.360   0.358   0.366   0.368   0.355   0.361   0.362   0.356   0.354   0.345   0.349   0.361   0.362   0.359   0.364   0.356   0.359   0.362   0.366   0.360   0.365   0.361   0.366   0.364   0.361   0.364   0.359   0.366   0.352   0.345   0.339   0.352   0.357   0.347   0.348   0.348   0.354   0.361   0.362   0.354   0.363   0.366   0.355   0.354   0.354   0.368   0.359   0.357   0.357   0.356   0.354   0.337   0.345   0.346   0.346   0.345   0.336   0.327   0.334   0.345   0.352   0.352   0.349   0.355   0.349   0.341   0.341   0.341   0.344   0.350   0.353   0.354   0.346   0.351   0.351   0.356   0.346   0.341   0.342   0.343   0.348   0.340   0.335   0.341   0.337   0.351   0.348   0.340   0.342   0.338   0.338   0.358   0.368   0.359   0.346   0.352   0.342   0.351   0.351   0.354   0.357   0.359   0.361   0.367

   Mean standard deviation across all grid points:
      u component:    0.707 m/s
      v component:    0.589 m/s
      w component:    0.355 m/s


U-component (X) statistics from the interpolated hub point:

   Mean =   9.7063 m/s
   TI   =   8.0395 %


Processing complete.  2.13059E+05 CPU seconds used.
