
This summary file was generated by TurbSim (from OpenFAST-v3.5.3) on 20-Apr-2025 at 04:46:27.


Runtime Options:

-228636811  Random seed #1
    RANLUX  Type of random number generator
         F  Output binary HH turbulence parameters?
         F  Output formatted turbulence parameters?
         F  Output AeroDyn HH files?
         T  Output AeroDyn FF files?
         F  Output BLADED FF files?
         F  Output tower data?
         F  Output HAWC FF files?
         F  Output formatted FF files?
         T  Output coherent turbulence time step file?
 0 -  NONE  IEC turbulence models scaled to exact specified standard deviation


Turbine/Model Specifications:

        37  Vertical grid-point matrix dimension
        35  Horizontal grid-point matrix dimension
     0.250  Time step [seconds]
   900.000  Analysis time [seconds]
   900.000  Usable output time [seconds]
    89.350  Hub height [m]
   167.400  Grid height [m]
   158.100  Grid width [m]
     0.000  Vertical flow angle [degrees]
     0.000  Horizontal flow angle [degrees]


Meteorological Boundary Conditions:

    TIMESR  User-input time series spectral model
       N/A  IEC standard
       N/A  IEC turbulence characteristic
       N/A  IEC turbulence type
       N/A  IEC Extreme Turbulence Model (ETM) "c" parameter [m/s]
       PL   Wind profile type
    90.000  Reference height [m]
    10.000  Reference wind speed [m/s]
       N/A  Jet height [m]
     0.120  Power law exponent
     0.030  Surface roughness length [m]


Non-IEC Meteorological Boundary Conditions:

    45.000  Site latitude [degrees]
     0.050  Gradient Richardson number
     0.480  Friction or shear velocity [m/s]
       N/A  Mixing layer depth [m]
       N/A  Mean hub u'w' Reynolds stress
       N/A  Mean hub u'v' Reynolds stress
       N/A  Mean hub v'w' Reynolds stress


Spatial Coherence Models:

       IEC  u-component coherence model
       IEC  v-component coherence model
       IEC  w-component coherence model
(   12.000, 0.353E-03)  u-component coherence parameters
(   12.000, 0.353E-03)  v-component coherence parameters
(   12.000, 0.353E-03)  w-component coherence parameters
       N/A  Coherence exponent


Coherent Turbulence Scaling Parameters:

.\EventData
            Name of the path containing the coherent turbulence data files
       les  Type of coherent turbulence data files
     1.000  Disturbance scale (ratio of wave height to rotor diameter)
     0.500  Fractional location of tower centerline from right
     0.500  Fractional location of hub height from the bottom of the dataset
    30.000  Minimum start time for coherent structures [seconds]


Profiles from User-Defined Time-Series Input:

  Height   Wind Speed   Horizontal Angle   Vertical Angle
   (m)        (m/s)          (deg)              (deg)    
  ------   ----------   ----------------   --------------
   94.00      10.00          -0.63                0.00


You have requested that the following file(s) be generated:

   /kfs3/scratch/agupta/Projects/RL_Incubator/FinalRuns_Veer/Seed4/./FFSim_Seed4/Cond00_v10.0_PL0.12_TI3.0/Case1_wdirp02/Seed_1/TurbSim/HighT3.bts (AeroDyn/TurbSim full-field wind file)


Turbulence Simulation Scaling Parameter Summary:

   Turbulence model used                            =  User-input time series
   Gradient Richardson number                       =    0.050
   Monin-Obukhov (M-O) z/L parameter                =    0.067
   Monin-Obukhov (M-O) length scale                 = 1340.250 m
   Mean wind speed at hub height                    =    9.991 m/s

   Wind profile type                                =  Power law
   Power law exponent                               =    0.120
   Mean shear across rotor disk                     =    0.019 (m/s)/m
   Assumed rotor diameter                           =  158.100 m
   Surface roughness length                         =    0.030 m

   Nyquist frequency of turbulent wind field        =    2.000 Hz

   Number of time steps in the FFT                  =     3600
   Number of time steps output                      =     3600
   Number of points simulated                       =     1296


Mean Flow Angles:

   Vertical   =   0.0 degrees
   Horizontal =   0.0 degrees

Mean Wind Speed Profile:

   Height    Wind Speed   Horizontal Angle  Vertical Angle  U-comp (X)   V-comp (Y)   W-comp (Z)
     (m)        (m/s)         (degrees)       (degrees)       (m/s)        (m/s)        (m/s)   
   ------    ----------   ----------------  --------------  ----------   ----------   ----------
    168.4       10.78            0.00            0.00         10.78         0.00         0.00
    163.7       10.74            0.00            0.00         10.74         0.00         0.00
    159.1       10.71            0.00            0.00         10.71         0.00         0.00
    154.4       10.67            0.00            0.00         10.67         0.00         0.00
    149.8       10.63            0.00            0.00         10.63         0.00         0.00
    145.1       10.59            0.00            0.00         10.59         0.00         0.00
    140.5       10.55            0.00            0.00         10.55         0.00         0.00
    135.8       10.51            0.00            0.00         10.51         0.00         0.00
    131.2       10.46            0.00            0.00         10.46         0.00         0.00
    126.5       10.42            0.00            0.00         10.42         0.00         0.00
    121.9       10.37            0.00            0.00         10.37         0.00         0.00
    117.2       10.32            0.00            0.00         10.32         0.00         0.00
    112.6       10.27            0.00            0.00         10.27         0.00         0.00
    107.9       10.22            0.00            0.00         10.22         0.00         0.00
    103.3       10.17            0.00            0.00         10.17         0.00         0.00
     98.6       10.11            0.00            0.00         10.11         0.00         0.00
     94.0       10.05            0.00            0.00         10.05         0.00         0.00
     89.3        9.99            0.00            0.00          9.99         0.00         0.00
     84.7        9.93            0.00            0.00          9.93         0.00         0.00
     80.0        9.86            0.00            0.00          9.86         0.00         0.00
     75.4        9.79            0.00            0.00          9.79         0.00         0.00
     70.7        9.72            0.00            0.00          9.72         0.00         0.00
     66.1        9.64            0.00            0.00          9.64         0.00         0.00
     61.4        9.55            0.00            0.00          9.55         0.00         0.00
     56.8        9.46            0.00            0.00          9.46         0.00         0.00
     52.1        9.37            0.00            0.00          9.37         0.00         0.00
     47.5        9.26            0.00            0.00          9.26         0.00         0.00
     42.8        9.15            0.00            0.00          9.15         0.00         0.00
     38.2        9.02            0.00            0.00          9.02         0.00         0.00
     33.5        8.88            0.00            0.00          8.88         0.00         0.00
     28.9        8.73            0.00            0.00          8.73         0.00         0.00
     24.2        8.54            0.00            0.00          8.54         0.00         0.00
     19.6        8.33            0.00            0.00          8.33         0.00         0.00
     14.9        8.06            0.00            0.00          8.06         0.00         0.00
     10.3        7.71            0.00            0.00          7.71         0.00         0.00
      5.6        7.17            0.00            0.00          7.17         0.00         0.00
      1.0        5.83            0.00            0.00          5.83         0.00         0.00


Harvested Random Seeds after Generation of the Random Numbers:

     65026800 K 1
            0 K 2


Hub-Height Simulated Turbulence Statistical Summary:

   Type of Wind        Min (m/s)   Mean (m/s)    Max (m/s)  Sigma (m/s)       TI (%)
   ----------------    ---------   ----------    ---------  -----------       ------
   Longitudinal (u)         9.08         9.99        11.02        0.322        3.225
   Lateral (v)             -0.74         0.00         0.81        0.256        2.561
   Vertical (w)            -0.44         0.00         0.55        0.136        1.366
   U component              9.08         9.99        11.02        0.322        3.225
   V component             -0.74         0.00         0.81        0.256        2.561
   W component             -0.44         0.00         0.55        0.136        1.366
   Horizontal (U&V)         9.09         9.99        11.02        0.321        3.215
   Total                    9.09        10.00        11.02        0.321        3.213

                       Min Reynolds     Mean Reynolds    Max Reynolds    Correlation
   Product             Stress (m/s)^2   Stress (m/s)^2   Stress (m/s)^2  Coefficient
   ----------------    --------------   --------------   --------------  -----------
   u'w'                     -0.308            -0.005             0.260        -0.107
   u'v'                     -0.553            -0.019             0.414        -0.229
   v'w'                     -0.193            -0.000             0.222        -0.000


   Friction Velocity (Ustar)  =      0.069 m/s
   Maximum Instantaneous TKE  =      0.586 (m/s)^2
   Maximum Instantaneous CTKE =      0.284 (m/s)^2


Grid Point Variance Summary:

   Y-coord  -79.05  -74.40  -69.75  -65.10  -60.45  -55.80  -51.15  -46.50  -41.85  -37.20  -32.55  -27.90  -23.25  -18.60  -13.95   -9.30   -4.65    0.00    4.65    9.30   13.95   18.60   23.25   27.90   32.55   37.20   41.85   46.50   51.15   55.80   60.45   65.10   69.75   74.40   79.05

   Height   Standard deviation at grid points for the u component:
   168.40    0.280   0.279   0.283   0.285   0.311   0.314   0.332   0.309   0.329   0.349   0.349   0.366   0.342   0.324   0.351   0.334   0.317   0.317   0.323   0.336   0.335   0.317   0.315   0.323   0.346   0.345   0.341   0.366   0.339   0.334   0.354   0.341   0.345   0.330   0.309
   163.75    0.308   0.288   0.305   0.313   0.337   0.330   0.354   0.346   0.347   0.358   0.390   0.364   0.362   0.367   0.352   0.343   0.316   0.306   0.318   0.330   0.326   0.315   0.319   0.297   0.316   0.339   0.336   0.340   0.345   0.349   0.324   0.309   0.340   0.329   0.312
   159.10    0.327   0.314   0.316   0.332   0.347   0.348   0.374   0.362   0.348   0.360   0.374   0.370   0.370   0.364   0.365   0.332   0.315   0.295   0.327   0.335   0.296   0.301   0.307   0.310   0.322   0.314   0.315   0.308   0.341   0.329   0.340   0.341   0.338   0.342   0.326
   154.45    0.311   0.321   0.321   0.313   0.344   0.354   0.359   0.380   0.351   0.356   0.372   0.375   0.362   0.362   0.341   0.322   0.310   0.322   0.301   0.325   0.306   0.313   0.298   0.304   0.299   0.311   0.305   0.325   0.320   0.330   0.328   0.341   0.349   0.328   0.349
   149.80    0.339   0.344   0.315   0.313   0.300   0.307   0.339   0.354   0.322   0.374   0.350   0.360   0.394   0.390   0.361   0.343   0.330   0.327   0.305   0.321   0.334   0.305   0.312   0.328   0.326   0.296   0.291   0.304   0.306   0.313   0.330   0.338   0.327   0.329   0.354
   145.15    0.308   0.304   0.302   0.302   0.307   0.306   0.293   0.321   0.322   0.351   0.347   0.365   0.379   0.376   0.371   0.371   0.325   0.340   0.309   0.296   0.319   0.326   0.324   0.311   0.339   0.342   0.317   0.317   0.299   0.292   0.303   0.329   0.334   0.328   0.338
   140.50    0.280   0.277   0.285   0.288   0.281   0.265   0.286   0.288   0.306   0.332   0.326   0.351   0.374   0.366   0.354   0.321   0.349   0.339   0.334   0.313   0.324   0.329   0.326   0.339   0.320   0.332   0.323   0.302   0.298   0.309   0.293   0.299   0.320   0.322   0.334
   135.85    0.310   0.290   0.291   0.288   0.287   0.272   0.286   0.296   0.320   0.337   0.322   0.338   0.330   0.361   0.358   0.346   0.349   0.320   0.348   0.329   0.320   0.332   0.322   0.337   0.333   0.334   0.343   0.312   0.295   0.295   0.300   0.304   0.324   0.341   0.316
   131.20    0.302   0.312   0.305   0.277   0.264   0.252   0.271   0.280   0.288   0.303   0.334   0.342   0.318   0.341   0.380   0.357   0.332   0.316   0.317   0.326   0.310   0.321   0.325   0.313   0.313   0.321   0.321   0.322   0.297   0.316   0.297   0.295   0.308   0.310   0.293
   126.55    0.333   0.333   0.347   0.310   0.293   0.273   0.263   0.279   0.270   0.304   0.314   0.301   0.313   0.353   0.359   0.347   0.342   0.301   0.312   0.325   0.303   0.302   0.290   0.316   0.319   0.329   0.333   0.330   0.326   0.318   0.295   0.306   0.298   0.319   0.296
   121.90    0.324   0.343   0.350   0.298   0.279   0.266   0.263   0.274   0.290   0.300   0.293   0.301   0.326   0.349   0.341   0.338   0.330   0.304   0.300   0.335   0.324   0.324   0.300   0.314   0.312   0.322   0.331   0.320   0.305   0.324   0.313   0.301   0.298   0.319   0.320
   117.25    0.361   0.353   0.323   0.303   0.283   0.283   0.284   0.300   0.308   0.297   0.284   0.280   0.315   0.320   0.307   0.308   0.305   0.300   0.298   0.301   0.303   0.303   0.320   0.319   0.309   0.319   0.334   0.319   0.298   0.306   0.314   0.312   0.308   0.318   0.295
   112.60    0.360   0.363   0.311   0.306   0.317   0.312   0.326   0.289   0.280   0.292   0.289   0.282   0.289   0.295   0.296   0.273   0.281   0.287   0.277   0.280   0.286   0.295   0.323   0.339   0.326   0.321   0.309   0.289   0.299   0.309   0.292   0.331   0.306   0.292   0.287
   107.95    0.393   0.383   0.339   0.327   0.301   0.307   0.313   0.309   0.279   0.297   0.299   0.283   0.281   0.304   0.286   0.276   0.273   0.295   0.294   0.309   0.297   0.310   0.355   0.337   0.332   0.308   0.284   0.287   0.279   0.282   0.298   0.319   0.313   0.304   0.275
   103.30    0.410   0.385   0.348   0.359   0.317   0.300   0.322   0.330   0.293   0.299   0.295   0.301   0.295   0.301   0.289   0.320   0.337   0.303   0.295   0.281   0.299   0.316   0.336   0.350   0.338   0.300   0.278   0.290   0.280   0.272   0.291   0.296   0.278   0.281   0.296
    98.65    0.417   0.426   0.387   0.370   0.363   0.326   0.324   0.339   0.296   0.281   0.301   0.319   0.317   0.291   0.290   0.315   0.334   0.307   0.280   0.280   0.312   0.319   0.337   0.323   0.315   0.300   0.302   0.279   0.299   0.274   0.281   0.281   0.283   0.288   0.287
    94.00    0.444   0.433   0.406   0.402   0.356   0.344   0.318   0.351   0.301   0.298   0.289   0.309   0.329   0.337   0.307   0.311   0.323   0.317   0.292   0.316   0.330   0.334   0.328   0.336   0.324   0.307   0.291   0.288   0.282   0.278   0.285   0.291   0.283   0.275   0.298
    89.35    0.428   0.421   0.399   0.388   0.359   0.369   0.328   0.334   0.327   0.291   0.286   0.306   0.320   0.316   0.309   0.297   0.320   0.322   0.330   0.338   0.335   0.349   0.342   0.335   0.339   0.332   0.306   0.298   0.303   0.289   0.288   0.278   0.285   0.290   0.305
    84.70    0.414   0.418   0.399   0.395   0.382   0.379   0.330   0.328   0.314   0.304   0.308   0.283   0.310   0.310   0.341   0.343   0.316   0.299   0.328   0.334   0.330   0.338   0.322   0.311   0.317   0.328   0.322   0.292   0.301   0.322   0.298   0.303   0.281   0.268   0.283
    80.05    0.411   0.439   0.406   0.418   0.411   0.357   0.356   0.338   0.315   0.343   0.309   0.300   0.297   0.315   0.323   0.326   0.313   0.300   0.306   0.310   0.327   0.327   0.324   0.312   0.319   0.311   0.308   0.284   0.284   0.284   0.304   0.289   0.263   0.266   0.282
    75.40    0.420   0.424   0.426   0.386   0.385   0.373   0.362   0.346   0.339   0.336   0.333   0.314   0.293   0.302   0.327   0.332   0.324   0.307   0.294   0.299   0.309   0.322   0.309   0.297   0.285   0.292   0.313   0.280   0.270   0.274   0.276   0.305   0.279   0.278   0.286
    70.75    0.393   0.411   0.407   0.393   0.394   0.357   0.356   0.371   0.375   0.345   0.331   0.342   0.316   0.307   0.321   0.333   0.309   0.295   0.298   0.286   0.314   0.314   0.304   0.282   0.299   0.302   0.292   0.281   0.283   0.291   0.295   0.307   0.286   0.271   0.281
    66.10    0.359   0.378   0.367   0.382   0.385   0.351   0.356   0.360   0.363   0.337   0.344   0.328   0.322   0.327   0.333   0.336   0.324   0.330   0.301   0.307   0.323   0.318   0.327   0.314   0.300   0.300   0.275   0.282   0.298   0.294   0.307   0.291   0.302   0.286   0.261
    61.45    0.343   0.335   0.373   0.357   0.375   0.363   0.364   0.354   0.337   0.322   0.348   0.335   0.337   0.336   0.357   0.341   0.314   0.332   0.321   0.320   0.315   0.332   0.345   0.316   0.305   0.278   0.263   0.294   0.327   0.336   0.343   0.294   0.281   0.273   0.278
    56.80    0.336   0.339   0.375   0.384   0.339   0.351   0.357   0.352   0.342   0.341   0.366   0.350   0.344   0.362   0.359   0.373   0.323   0.296   0.336   0.324   0.345   0.344   0.333   0.309   0.293   0.279   0.271   0.301   0.318   0.334   0.324   0.314   0.291   0.274   0.290
    52.15    0.365   0.375   0.372   0.372   0.345   0.363   0.319   0.331   0.334   0.351   0.351   0.333   0.352   0.373   0.388   0.385   0.331   0.298   0.325   0.327   0.345   0.338   0.327   0.292   0.298   0.295   0.285   0.297   0.306   0.294   0.297   0.302   0.287   0.301   0.293
    47.50    0.416   0.407   0.370   0.342   0.333   0.354   0.344   0.315   0.307   0.341   0.317   0.349   0.330   0.358   0.353   0.356   0.333   0.329   0.321   0.344   0.351   0.341   0.309   0.311   0.312   0.312   0.285   0.276   0.298   0.286   0.291   0.294   0.296   0.303   0.283
    42.85    0.401   0.412   0.369   0.361   0.348   0.344   0.362   0.337   0.311   0.316   0.322   0.342   0.353   0.337   0.328   0.333   0.339   0.352   0.369   0.370   0.334   0.336   0.298   0.307   0.306   0.286   0.286   0.277   0.285   0.293   0.282   0.305   0.300   0.288   0.264
    38.20    0.387   0.400   0.380   0.347   0.339   0.338   0.356   0.321   0.299   0.290   0.296   0.296   0.332   0.338   0.310   0.312   0.325   0.348   0.338   0.334   0.304   0.318   0.287   0.307   0.284   0.302   0.308   0.290   0.278   0.272   0.280   0.286   0.270   0.253   0.268
    33.55    0.390   0.395   0.380   0.368   0.342   0.351   0.374   0.342   0.309   0.280   0.271   0.292   0.313   0.326   0.326   0.298   0.319   0.332   0.339   0.304   0.295   0.302   0.297   0.303   0.313   0.296   0.312   0.298   0.278   0.254   0.264   0.275   0.256   0.251   0.242
    28.90    0.368   0.364   0.384   0.366   0.376   0.350   0.360   0.343   0.316   0.292   0.269   0.267   0.303   0.302   0.295   0.292   0.292   0.315   0.331   0.293   0.300   0.265   0.278   0.282   0.263   0.287   0.288   0.292   0.273   0.276   0.278   0.292   0.272   0.250   0.259
    24.25    0.350   0.360   0.360   0.363   0.348   0.365   0.353   0.330   0.327   0.304   0.297   0.311   0.287   0.292   0.322   0.299   0.296   0.277   0.280   0.300   0.291   0.278   0.271   0.261   0.266   0.289   0.298   0.299   0.284   0.298   0.295   0.292   0.273   0.243   0.236
    19.60    0.359   0.361   0.336   0.324   0.343   0.349   0.366   0.364   0.315   0.299   0.302   0.301   0.277   0.308   0.319   0.304   0.290   0.274   0.266   0.290   0.276   0.252   0.267   0.259   0.284   0.321   0.321   0.301   0.290   0.302   0.304   0.289   0.274   0.261   0.245
    14.95    0.370   0.348   0.352   0.345   0.328   0.338   0.352   0.344   0.306   0.318   0.312   0.287   0.290   0.319   0.294   0.301   0.309   0.290   0.262   0.276   0.275   0.259   0.260   0.257   0.300   0.317   0.320   0.310   0.293   0.293   0.291   0.280   0.256   0.254   0.257
    10.30    0.356   0.356   0.330   0.313   0.322   0.307   0.326   0.322   0.310   0.338   0.302   0.300   0.322   0.324   0.307   0.310   0.307   0.292   0.280   0.293   0.281   0.261   0.274   0.290   0.297   0.287   0.311   0.301   0.305   0.273   0.282   0.277   0.278   0.257   0.261
     5.65    0.340   0.354   0.352   0.318   0.305   0.304   0.307   0.292   0.315   0.328   0.313   0.318   0.315   0.313   0.343   0.316   0.317   0.314   0.262   0.269   0.274   0.254   0.284   0.278   0.286   0.296   0.290   0.296   0.296   0.292   0.293   0.279   0.271   0.282   0.244
     1.00    0.320   0.339   0.330   0.307   0.304   0.315   0.326   0.292   0.316   0.300   0.308   0.309   0.312   0.342   0.335   0.328   0.327   0.304   0.268   0.278   0.248   0.250   0.273   0.290   0.291   0.295   0.294   0.311   0.318   0.289   0.313   0.310   0.274   0.254   0.258

   Height   Standard deviation at grid points for the v component:
   168.40    0.212   0.220   0.225   0.231   0.238   0.231   0.239   0.244   0.247   0.250   0.254   0.248   0.256   0.240   0.249   0.242   0.255   0.252   0.246   0.231   0.238   0.242   0.261   0.255   0.254   0.262   0.272   0.251   0.255   0.258   0.254   0.261   0.276   0.269   0.260
   163.75    0.217   0.218   0.218   0.234   0.242   0.235   0.257   0.253   0.256   0.260   0.249   0.259   0.265   0.256   0.242   0.237   0.235   0.245   0.243   0.229   0.228   0.239   0.250   0.243   0.222   0.252   0.251   0.263   0.260   0.257   0.250   0.264   0.272   0.252   0.249
   159.10    0.220   0.216   0.213   0.232   0.237   0.248   0.251   0.250   0.260   0.271   0.236   0.251   0.256   0.244   0.242   0.244   0.241   0.236   0.243   0.244   0.232   0.234   0.240   0.234   0.223   0.239   0.247   0.256   0.263   0.249   0.253   0.254   0.263   0.250   0.248
   154.45    0.228   0.242   0.232   0.224   0.231   0.252   0.245   0.256   0.273   0.261   0.239   0.252   0.243   0.250   0.235   0.256   0.243   0.259   0.245   0.244   0.232   0.233   0.245   0.245   0.236   0.246   0.258   0.248   0.259   0.245   0.261   0.270   0.273   0.259   0.248
   149.80    0.233   0.249   0.248   0.231   0.229   0.245   0.245   0.258   0.269   0.247   0.238   0.245   0.239   0.235   0.247   0.253   0.266   0.255   0.248   0.232   0.239   0.238   0.249   0.258   0.242   0.241   0.258   0.263   0.250   0.253   0.239   0.264   0.260   0.258   0.239
   145.15    0.239   0.251   0.255   0.229   0.254   0.256   0.254   0.266   0.252   0.251   0.237   0.241   0.235   0.237   0.249   0.245   0.257   0.245   0.245   0.238   0.231   0.237   0.237   0.241   0.233   0.232   0.238   0.248   0.246   0.252   0.246   0.253   0.255   0.238   0.230
   140.50    0.235   0.246   0.248   0.250   0.255   0.253   0.249   0.248   0.248   0.238   0.235   0.244   0.237   0.242   0.258   0.256   0.259   0.240   0.244   0.227   0.223   0.239   0.235   0.226   0.221   0.221   0.221   0.236   0.236   0.237   0.241   0.252   0.245   0.235   0.237
   135.85    0.223   0.239   0.253   0.256   0.259   0.250   0.249   0.233   0.240   0.251   0.240   0.231   0.236   0.242   0.252   0.259   0.253   0.241   0.253   0.242   0.235   0.232   0.226   0.221   0.221   0.223   0.230   0.231   0.232   0.245   0.243   0.240   0.237   0.228   0.227
   131.20    0.226   0.234   0.251   0.252   0.251   0.252   0.255   0.243   0.238   0.243   0.242   0.233   0.231   0.242   0.242   0.249   0.253   0.240   0.238   0.245   0.236   0.233   0.227   0.229   0.231   0.223   0.229   0.238   0.232   0.246   0.245   0.252   0.241   0.234   0.222
   126.55    0.227   0.219   0.232   0.240   0.247   0.238   0.249   0.237   0.228   0.233   0.228   0.229   0.225   0.231   0.247   0.236   0.248   0.241   0.232   0.240   0.239   0.232   0.239   0.226   0.239   0.239   0.240   0.227   0.246   0.249   0.249   0.249   0.255   0.240   0.240
   121.90    0.210   0.222   0.229   0.245   0.244   0.243   0.251   0.257   0.245   0.250   0.234   0.222   0.227   0.234   0.245   0.246   0.241   0.229   0.220   0.241   0.239   0.229   0.232   0.222   0.231   0.232   0.228   0.248   0.256   0.256   0.246   0.241   0.242   0.234   0.244
   117.25    0.213   0.212   0.227   0.245   0.240   0.249   0.260   0.249   0.254   0.252   0.233   0.224   0.237   0.246   0.249   0.247   0.240   0.225   0.228   0.224   0.236   0.224   0.224   0.237   0.233   0.231   0.241   0.254   0.256   0.239   0.224   0.246   0.248   0.242   0.244
   112.60    0.223   0.217   0.231   0.245   0.243   0.256   0.253   0.241   0.233   0.246   0.239   0.236   0.252   0.248   0.245   0.240   0.235   0.226   0.221   0.235   0.249   0.233   0.231   0.235   0.234   0.227   0.232   0.250   0.257   0.239   0.241   0.235   0.246   0.253   0.250
   107.95    0.224   0.217   0.233   0.250   0.250   0.245   0.240   0.237   0.241   0.246   0.239   0.241   0.244   0.245   0.233   0.245   0.242   0.245   0.239   0.252   0.244   0.234   0.229   0.216   0.219   0.210   0.234   0.233   0.254   0.244   0.228   0.239   0.238   0.254   0.242
   103.30    0.233   0.223   0.231   0.255   0.249   0.249   0.245   0.239   0.237   0.239   0.233   0.238   0.248   0.246   0.252   0.252   0.257   0.254   0.253   0.249   0.257   0.255   0.229   0.223   0.229   0.233   0.241   0.247   0.253   0.251   0.240   0.240   0.246   0.247   0.245
    98.65    0.230   0.225   0.235   0.252   0.253   0.262   0.251   0.239   0.235   0.243   0.253   0.247   0.250   0.263   0.259   0.257   0.257   0.242   0.235   0.246   0.250   0.244   0.235   0.233   0.225   0.236   0.249   0.255   0.259   0.254   0.257   0.250   0.243   0.242   0.232
    94.00    0.227   0.245   0.246   0.238   0.242   0.242   0.241   0.241   0.258   0.249   0.237   0.251   0.256   0.257   0.258   0.250   0.263   0.244   0.234   0.238   0.239   0.250   0.241   0.229   0.240   0.240   0.253   0.257   0.258   0.268   0.254   0.250   0.244   0.231   0.227
    89.35    0.232   0.246   0.252   0.241   0.255   0.248   0.242   0.255   0.261   0.258   0.245   0.249   0.255   0.259   0.263   0.255   0.258   0.256   0.240   0.247   0.246   0.260   0.253   0.251   0.250   0.245   0.258   0.256   0.253   0.255   0.264   0.262   0.249   0.231   0.229
    84.70    0.256   0.248   0.260   0.260   0.267   0.269   0.269   0.266   0.267   0.250   0.260   0.254   0.265   0.266   0.265   0.263   0.253   0.255   0.241   0.247   0.243   0.247   0.258   0.248   0.262   0.267   0.273   0.264   0.255   0.259   0.252   0.253   0.252   0.246   0.235
    80.05    0.245   0.254   0.255   0.262   0.274   0.291   0.277   0.274   0.286   0.268   0.279   0.267   0.271   0.263   0.267   0.277   0.271   0.250   0.242   0.237   0.249   0.267   0.263   0.249   0.248   0.262   0.261   0.277   0.282   0.270   0.255   0.259   0.242   0.253   0.243
    75.40    0.259   0.253   0.271   0.271   0.268   0.276   0.262   0.283   0.290   0.270   0.285   0.283   0.271   0.257   0.272   0.275   0.260   0.255   0.241   0.256   0.257   0.260   0.273   0.259   0.264   0.260   0.268   0.280   0.271   0.260   0.262   0.252   0.239   0.251   0.237
    70.75    0.249   0.259   0.272   0.282   0.280   0.274   0.272   0.275   0.277   0.270   0.294   0.298   0.279   0.282   0.278   0.272   0.256   0.251   0.251   0.248   0.260   0.261   0.252   0.266   0.273   0.272   0.274   0.273   0.285   0.272   0.274   0.267   0.243   0.248   0.243
    66.10    0.261   0.264   0.262   0.269   0.272   0.269   0.258   0.258   0.267   0.266   0.290   0.276   0.279   0.288   0.287   0.289   0.271   0.268   0.267   0.248   0.246   0.254   0.264   0.268   0.260   0.259   0.257   0.269   0.278   0.284   0.278   0.264   0.263   0.265   0.269
    61.45    0.246   0.252   0.254   0.256   0.253   0.268   0.259   0.249   0.250   0.269   0.286   0.281   0.287   0.278   0.287   0.277   0.260   0.268   0.260   0.249   0.239   0.246   0.257   0.257   0.266   0.251   0.259   0.282   0.289   0.285   0.291   0.279   0.275   0.284   0.270
    56.80    0.260   0.262   0.260   0.253   0.255   0.270   0.255   0.262   0.254   0.262   0.268   0.282   0.290   0.291   0.290   0.280   0.272   0.250   0.266   0.246   0.249   0.238   0.239   0.259   0.258   0.244   0.257   0.269   0.281   0.291   0.284   0.295   0.283   0.283   0.275
    52.15    0.266   0.274   0.253   0.266   0.273   0.271   0.247   0.256   0.235   0.249   0.263   0.256   0.271   0.270   0.273   0.273   0.274   0.258   0.262   0.258   0.251   0.253   0.240   0.241   0.261   0.252   0.274   0.257   0.280   0.283   0.272   0.285   0.285   0.284   0.282
    47.50    0.271   0.264   0.267   0.271   0.276   0.262   0.246   0.252   0.255   0.248   0.249   0.255   0.251   0.265   0.280   0.282   0.259   0.263   0.252   0.249   0.264   0.252   0.246   0.233   0.258   0.264   0.263   0.269   0.292   0.288   0.283   0.295   0.288   0.285   0.261
    42.85    0.268   0.259   0.264   0.284   0.272   0.260   0.252   0.258   0.253   0.239   0.239   0.251   0.257   0.265   0.274   0.264   0.255   0.250   0.248   0.257   0.269   0.254   0.245   0.254   0.264   0.271   0.257   0.271   0.291   0.295   0.287   0.294   0.288   0.274   0.265
    38.20    0.262   0.260   0.269   0.286   0.272   0.270   0.270   0.256   0.254   0.239   0.239   0.237   0.242   0.250   0.251   0.271   0.267   0.262   0.249   0.262   0.260   0.255   0.252   0.248   0.269   0.273   0.263   0.265   0.289   0.277   0.268   0.283   0.276   0.261   0.258
    33.55    0.276   0.274   0.273   0.276   0.276   0.272   0.259   0.268   0.259   0.241   0.232   0.224   0.244   0.255   0.250   0.255   0.258   0.266   0.260   0.257   0.260   0.250   0.240   0.244   0.262   0.257   0.272   0.270   0.281   0.283   0.281   0.283   0.268   0.255   0.244
    28.90    0.267   0.262   0.274   0.259   0.256   0.264   0.265   0.259   0.251   0.236   0.231   0.239   0.231   0.239   0.239   0.258   0.267   0.257   0.258   0.263   0.249   0.249   0.258   0.260   0.262   0.258   0.275   0.276   0.287   0.288   0.285   0.278   0.262   0.244   0.250
    24.25    0.260   0.256   0.262   0.249   0.240   0.258   0.256   0.250   0.246   0.231   0.231   0.218   0.229   0.229   0.222   0.238   0.245   0.246   0.262   0.264   0.257   0.258   0.272   0.279   0.275   0.290   0.283   0.287   0.288   0.287   0.276   0.267   0.259   0.245   0.249
    19.60    0.248   0.245   0.248   0.240   0.239   0.236   0.240   0.234   0.235   0.214   0.223   0.233   0.236   0.236   0.234   0.238   0.241   0.258   0.265   0.253   0.250   0.258   0.280   0.290   0.278   0.292   0.271   0.283   0.298   0.283   0.270   0.254   0.234   0.245   0.247
    14.95    0.245   0.244   0.247   0.248   0.235   0.230   0.232   0.233   0.233   0.220   0.217   0.219   0.220   0.235   0.236   0.236   0.244   0.250   0.258   0.255   0.263   0.272   0.280   0.289   0.296   0.278   0.267   0.279   0.298   0.282   0.273   0.245   0.245   0.241   0.250
    10.30    0.239   0.247   0.239   0.238   0.226   0.230   0.235   0.230   0.230   0.234   0.214   0.208   0.215   0.223   0.238   0.235   0.248   0.244   0.259   0.256   0.268   0.264   0.277   0.277   0.271   0.275   0.284   0.289   0.304   0.295   0.276   0.266   0.252   0.257   0.247
     5.65    0.244   0.244   0.238   0.233   0.229   0.220   0.224   0.220   0.218   0.223   0.217   0.212   0.210   0.234   0.245   0.239   0.242   0.245   0.255   0.268   0.275   0.269   0.284   0.276   0.276   0.280   0.283   0.291   0.295   0.299   0.280   0.289   0.269   0.248   0.239
     1.00    0.245   0.245   0.231   0.228   0.220   0.225   0.219   0.208   0.216   0.222   0.222   0.212   0.211   0.222   0.236   0.237   0.247   0.254   0.259   0.261   0.276   0.260   0.266   0.270   0.284   0.292   0.287   0.299   0.290   0.295   0.273   0.269   0.257   0.249   0.249

   Height   Standard deviation at grid points for the w component:
   168.40    0.139   0.137   0.131   0.133   0.130   0.132   0.137   0.133   0.132   0.131   0.132   0.136   0.139   0.140   0.134   0.138   0.141   0.141   0.141   0.140   0.141   0.142   0.134   0.137   0.137   0.138   0.134   0.137   0.134   0.139   0.140   0.137   0.136   0.140   0.141
   163.75    0.138   0.137   0.137   0.134   0.130   0.134   0.136   0.134   0.133   0.130   0.136   0.133   0.137   0.139   0.137   0.137   0.139   0.145   0.143   0.141   0.139   0.136   0.140   0.139   0.141   0.141   0.143   0.136   0.133   0.135   0.138   0.140   0.143   0.142   0.136
   159.10    0.139   0.143   0.137   0.136   0.133   0.133   0.131   0.131   0.138   0.142   0.139   0.133   0.138   0.141   0.137   0.141   0.140   0.138   0.143   0.142   0.140   0.142   0.140   0.142   0.142   0.141   0.144   0.139   0.131   0.137   0.142   0.133   0.143   0.145   0.141
   154.45    0.138   0.137   0.133   0.134   0.136   0.130   0.134   0.137   0.136   0.133   0.133   0.133   0.134   0.136   0.134   0.135   0.138   0.138   0.145   0.136   0.136   0.137   0.140   0.141   0.137   0.139   0.140   0.136   0.139   0.140   0.130   0.136   0.141   0.144   0.145
   149.80    0.135   0.137   0.134   0.136   0.134   0.133   0.131   0.133   0.141   0.138   0.136   0.135   0.126   0.133   0.138   0.141   0.143   0.138   0.143   0.132   0.137   0.135   0.140   0.137   0.140   0.132   0.130   0.133   0.140   0.141   0.136   0.133   0.138   0.136   0.134
   145.15    0.137   0.136   0.135   0.139   0.137   0.137   0.134   0.138   0.139   0.137   0.136   0.134   0.136   0.141   0.142   0.143   0.144   0.139   0.136   0.135   0.132   0.135   0.139   0.136   0.133   0.137   0.130   0.133   0.138   0.136   0.136   0.139   0.138   0.138   0.135
   140.50    0.133   0.135   0.133   0.141   0.139   0.134   0.136   0.137   0.142   0.133   0.128   0.134   0.138   0.145   0.142   0.145   0.147   0.143   0.137   0.142   0.132   0.132   0.139   0.137   0.139   0.136   0.135   0.137   0.142   0.137   0.134   0.138   0.136   0.142   0.136
   135.85    0.135   0.139   0.139   0.138   0.138   0.135   0.132   0.131   0.136   0.129   0.130   0.134   0.140   0.138   0.139   0.144   0.139   0.143   0.139   0.141   0.143   0.138   0.141   0.140   0.137   0.137   0.133   0.138   0.138   0.132   0.140   0.141   0.135   0.137   0.140
   131.20    0.138   0.146   0.138   0.133   0.133   0.133   0.132   0.136   0.132   0.133   0.132   0.132   0.138   0.134   0.133   0.138   0.137   0.138   0.140   0.140   0.138   0.144   0.145   0.138   0.136   0.130   0.133   0.137   0.139   0.139   0.136   0.139   0.142   0.137   0.139
   126.55    0.139   0.137   0.139   0.142   0.140   0.133   0.139   0.136   0.138   0.135   0.134   0.138   0.133   0.135   0.139   0.136   0.138   0.142   0.138   0.134   0.142   0.140   0.141   0.139   0.138   0.136   0.132   0.138   0.135   0.134   0.134   0.134   0.136   0.137   0.136
   121.90    0.134   0.138   0.138   0.134   0.138   0.137   0.137   0.135   0.137   0.134   0.137   0.136   0.136   0.138   0.134   0.133   0.133   0.138   0.138   0.134   0.141   0.144   0.139   0.141   0.139   0.137   0.136   0.142   0.141   0.141   0.140   0.136   0.132   0.132   0.131
   117.25    0.131   0.134   0.138   0.136   0.141   0.135   0.140   0.140   0.135   0.137   0.136   0.135   0.137   0.132   0.139   0.137   0.136   0.133   0.133   0.138   0.144   0.145   0.145   0.145   0.142   0.140   0.134   0.136   0.139   0.137   0.139   0.141   0.140   0.135   0.135
   112.60    0.129   0.132   0.129   0.137   0.139   0.135   0.136   0.137   0.140   0.144   0.138   0.135   0.138   0.137   0.138   0.140   0.141   0.138   0.138   0.138   0.139   0.142   0.141   0.145   0.146   0.140   0.138   0.136   0.138   0.136   0.137   0.135   0.137   0.139   0.133
   107.95    0.132   0.131   0.132   0.139   0.139   0.136   0.139   0.138   0.142   0.147   0.142   0.142   0.132   0.136   0.137   0.139   0.137   0.137   0.136   0.144   0.142   0.142   0.142   0.139   0.140   0.143   0.141   0.139   0.143   0.134   0.138   0.140   0.137   0.139   0.140
   103.30    0.136   0.139   0.138   0.143   0.144   0.145   0.145   0.143   0.146   0.147   0.145   0.144   0.140   0.138   0.136   0.142   0.138   0.139   0.139   0.137   0.141   0.138   0.140   0.141   0.139   0.136   0.136   0.133   0.132   0.138   0.134   0.137   0.139   0.145   0.147
    98.65    0.136   0.133   0.134   0.140   0.142   0.144   0.147   0.145   0.143   0.140   0.136   0.142   0.142   0.141   0.147   0.145   0.138   0.137   0.137   0.139   0.143   0.140   0.139   0.141   0.138   0.138   0.141   0.136   0.139   0.136   0.135   0.133   0.145   0.143   0.146
    94.00    0.136   0.138   0.135   0.138   0.139   0.144   0.143   0.140   0.138   0.131   0.136   0.133   0.142   0.142   0.142   0.141   0.139   0.140   0.140   0.139   0.138   0.134   0.135   0.142   0.141   0.133   0.140   0.140   0.136   0.139   0.142   0.143   0.148   0.141   0.144
    89.35    0.136   0.136   0.139   0.143   0.137   0.146   0.146   0.146   0.139   0.140   0.142   0.141   0.141   0.145   0.148   0.146   0.139   0.136   0.138   0.139   0.138   0.137   0.143   0.140   0.137   0.132   0.130   0.134   0.137   0.142   0.142   0.145   0.147   0.151   0.144
    84.70    0.136   0.135   0.144   0.146   0.139   0.141   0.147   0.142   0.139   0.141   0.139   0.134   0.138   0.139   0.145   0.148   0.142   0.139   0.135   0.135   0.136   0.140   0.137   0.137   0.139   0.137   0.134   0.132   0.136   0.139   0.140   0.139   0.145   0.150   0.147
    80.05    0.136   0.136   0.141   0.146   0.144   0.135   0.141   0.137   0.135   0.141   0.142   0.139   0.140   0.140   0.146   0.140   0.143   0.140   0.140   0.134   0.133   0.136   0.134   0.136   0.134   0.136   0.131   0.134   0.135   0.138   0.141   0.140   0.147   0.149   0.146
    75.40    0.140   0.141   0.142   0.145   0.140   0.142   0.136   0.133   0.134   0.135   0.137   0.139   0.138   0.142   0.142   0.138   0.137   0.141   0.142   0.136   0.129   0.134   0.133   0.135   0.130   0.135   0.132   0.137   0.133   0.137   0.143   0.144   0.146   0.143   0.146
    70.75    0.137   0.139   0.141   0.139   0.137   0.138   0.140   0.137   0.136   0.135   0.138   0.142   0.140   0.141   0.136   0.135   0.136   0.137   0.136   0.135   0.134   0.142   0.141   0.134   0.130   0.132   0.139   0.135   0.133   0.140   0.146   0.142   0.143   0.141   0.145
    66.10    0.145   0.144   0.142   0.142   0.136   0.136   0.137   0.134   0.137   0.137   0.136   0.141   0.142   0.141   0.136   0.134   0.135   0.139   0.136   0.134   0.132   0.136   0.137   0.136   0.129   0.130   0.138   0.141   0.135   0.137   0.142   0.145   0.140   0.145   0.148
    61.45    0.147   0.141   0.137   0.135   0.136   0.138   0.137   0.131   0.136   0.140   0.145   0.142   0.142   0.144   0.134   0.136   0.143   0.145   0.139   0.137   0.130   0.140   0.137   0.135   0.133   0.132   0.137   0.139   0.142   0.138   0.145   0.142   0.140   0.145   0.143
    56.80    0.145   0.140   0.136   0.137   0.136   0.140   0.140   0.139   0.137   0.142   0.148   0.142   0.140   0.147   0.139   0.136   0.137   0.139   0.135   0.132   0.136   0.138   0.140   0.138   0.138   0.129   0.134   0.136   0.139   0.139   0.146   0.138   0.141   0.144   0.142
    52.15    0.141   0.142   0.142   0.138   0.139   0.138   0.132   0.138   0.147   0.147   0.143   0.142   0.139   0.144   0.147   0.140   0.137   0.138   0.139   0.136   0.140   0.135   0.136   0.138   0.141   0.134   0.135   0.135   0.141   0.141   0.145   0.140   0.142   0.143   0.139
    47.50    0.143   0.140   0.142   0.137   0.136   0.138   0.137   0.144   0.146   0.143   0.142   0.141   0.141   0.139   0.146   0.145   0.137   0.139   0.138   0.137   0.138   0.140   0.135   0.139   0.137   0.140   0.139   0.138   0.140   0.146   0.146   0.139   0.141   0.144   0.141
    42.85    0.143   0.139   0.141   0.139   0.139   0.139   0.137   0.139   0.140   0.140   0.135   0.138   0.138   0.143   0.142   0.141   0.145   0.145   0.138   0.136   0.137   0.136   0.134   0.136   0.138   0.138   0.146   0.142   0.144   0.142   0.143   0.138   0.140   0.139   0.141
    38.20    0.141   0.144   0.144   0.146   0.138   0.143   0.134   0.134   0.138   0.139   0.133   0.134   0.139   0.140   0.140   0.138   0.139   0.141   0.134   0.138   0.136   0.139   0.136   0.141   0.138   0.144   0.143   0.146   0.144   0.143   0.148   0.139   0.133   0.136   0.141
    33.55    0.139   0.139   0.144   0.143   0.141   0.138   0.135   0.132   0.131   0.132   0.135   0.135   0.147   0.143   0.142   0.142   0.146   0.139   0.132   0.138   0.135   0.138   0.139   0.140   0.144   0.143   0.145   0.148   0.146   0.141   0.142   0.136   0.130   0.129   0.134
    28.90    0.136   0.141   0.144   0.141   0.137   0.141   0.138   0.133   0.136   0.137   0.143   0.142   0.141   0.143   0.141   0.144   0.136   0.141   0.139   0.139   0.137   0.141   0.139   0.143   0.146   0.147   0.143   0.148   0.140   0.145   0.139   0.133   0.133   0.139   0.135
    24.25    0.141   0.139   0.143   0.141   0.136   0.139   0.140   0.137   0.138   0.137   0.143   0.138   0.143   0.141   0.139   0.140   0.139   0.139   0.144   0.140   0.139   0.142   0.143   0.146   0.139   0.142   0.148   0.146   0.140   0.141   0.135   0.138   0.136   0.143   0.141
    19.60    0.135   0.141   0.137   0.140   0.137   0.135   0.136   0.134   0.140   0.143   0.146   0.143   0.139   0.140   0.137   0.141   0.140   0.135   0.139   0.144   0.138   0.141   0.148   0.147   0.139   0.141   0.142   0.140   0.137   0.137   0.137   0.137   0.141   0.141   0.139
    14.95    0.134   0.132   0.134   0.136   0.141   0.139   0.137   0.133   0.138   0.144   0.144   0.142   0.136   0.138   0.142   0.142   0.141   0.138   0.134   0.136   0.142   0.142   0.150   0.155   0.147   0.144   0.144   0.141   0.144   0.141   0.140   0.137   0.137   0.139   0.138
    10.30    0.130   0.130   0.132   0.137   0.134   0.141   0.141   0.132   0.133   0.139   0.140   0.140   0.140   0.138   0.137   0.143   0.135   0.140   0.138   0.136   0.140   0.141   0.141   0.147   0.144   0.146   0.140   0.145   0.143   0.145   0.143   0.139   0.138   0.143   0.142
     5.65    0.130   0.137   0.136   0.135   0.134   0.136   0.144   0.136   0.137   0.139   0.140   0.143   0.144   0.144   0.135   0.139   0.136   0.139   0.137   0.134   0.136   0.139   0.145   0.148   0.145   0.142   0.141   0.145   0.138   0.144   0.140   0.141   0.140   0.142   0.139
     1.00    0.140   0.136   0.135   0.137   0.133   0.136   0.144   0.141   0.137   0.141   0.142   0.144   0.146   0.141   0.139   0.145   0.141   0.134   0.139   0.140   0.143   0.142   0.142   0.142   0.144   0.135   0.141   0.141   0.137   0.142   0.139   0.139   0.140   0.139   0.139

   Mean standard deviation across all grid points:
      u component:    0.318 m/s
      v component:    0.252 m/s
      w component:    0.139 m/s


U-component (X) statistics from the interpolated hub point:

   Mean =   9.9913 m/s
   TI   =   3.2248 %


Processing complete.  6247 CPU seconds used.
