
This summary file was generated by TurbSim (from OpenFAST-v3.5.3) on 20-Apr-2025 at 03:13:17.


Runtime Options:

1682697194  Random seed #1
    RANLUX  Type of random number generator
         F  Output binary HH turbulence parameters?
         F  Output formatted turbulence parameters?
         F  Output AeroDyn HH files?
         T  Output AeroDyn FF files?
         F  Output BLADED FF files?
         F  Output tower data?
         F  Output HAWC FF files?
         F  Output formatted FF files?
         T  Output coherent turbulence time step file?
 0 -  NONE  IEC turbulence models scaled to exact specified standard deviation


Turbine/Model Specifications:

        37  Vertical grid-point matrix dimension
        35  Horizontal grid-point matrix dimension
     0.250  Time step [seconds]
   900.000  Analysis time [seconds]
   900.000  Usable output time [seconds]
    89.350  Hub height [m]
   167.400  Grid height [m]
   158.100  Grid width [m]
     0.000  Vertical flow angle [degrees]
     0.000  Horizontal flow angle [degrees]


Meteorological Boundary Conditions:

    TIMESR  User-input time series spectral model
       N/A  IEC standard
       N/A  IEC turbulence characteristic
       N/A  IEC turbulence type
       N/A  IEC Extreme Turbulence Model (ETM) "c" parameter [m/s]
       PL   Wind profile type
    90.000  Reference height [m]
    10.000  Reference wind speed [m/s]
       N/A  Jet height [m]
     0.120  Power law exponent
     0.030  Surface roughness length [m]


Non-IEC Meteorological Boundary Conditions:

    45.000  Site latitude [degrees]
     0.050  Gradient Richardson number
     0.480  Friction or shear velocity [m/s]
       N/A  Mixing layer depth [m]
       N/A  Mean hub u'w' Reynolds stress
       N/A  Mean hub u'v' Reynolds stress
       N/A  Mean hub v'w' Reynolds stress


Spatial Coherence Models:

       IEC  u-component coherence model
       IEC  v-component coherence model
       IEC  w-component coherence model
(   12.000, 0.353E-03)  u-component coherence parameters
(   12.000, 0.353E-03)  v-component coherence parameters
(   12.000, 0.353E-03)  w-component coherence parameters
       N/A  Coherence exponent


Coherent Turbulence Scaling Parameters:

.\EventData
            Name of the path containing the coherent turbulence data files
       les  Type of coherent turbulence data files
     0.500  Disturbance scale (ratio of wave height to rotor diameter)
     0.500  Fractional location of tower centerline from right
     0.000  Fractional location of hub height from the bottom of the dataset
    30.000  Minimum start time for coherent structures [seconds]


Profiles from User-Defined Time-Series Input:

  Height   Wind Speed   Horizontal Angle   Vertical Angle
   (m)        (m/s)          (deg)              (deg)    
  ------   ----------   ----------------   --------------
   94.00      10.00          -0.63                0.00


You have requested that the following file(s) be generated:

   /kfs3/scratch/agupta/Projects/RL_Incubator/FinalRuns_Veer/Seed4/./FFSim_Seed4/Cond00_v10.0_PL0.12_TI5.0/Case0_wdirp00/Seed_5/TurbSim/HighT18.bts (AeroDyn/TurbSim full-field wind file)


Turbulence Simulation Scaling Parameter Summary:

   Turbulence model used                            =  User-input time series
   Gradient Richardson number                       =    0.050
   Monin-Obukhov (M-O) z/L parameter                =    0.067
   Monin-Obukhov (M-O) length scale                 = 1340.250 m
   Mean wind speed at hub height                    =    9.991 m/s

   Wind profile type                                =  Power law
   Power law exponent                               =    0.120
   Mean shear across rotor disk                     =    0.019 (m/s)/m
   Assumed rotor diameter                           =  158.100 m
   Surface roughness length                         =    0.030 m

   Nyquist frequency of turbulent wind field        =    2.000 Hz

   Number of time steps in the FFT                  =     3600
   Number of time steps output                      =     3600
   Number of points simulated                       =     1296


Mean Flow Angles:

   Vertical   =   0.0 degrees
   Horizontal =   0.0 degrees

Mean Wind Speed Profile:

   Height    Wind Speed   Horizontal Angle  Vertical Angle  U-comp (X)   V-comp (Y)   W-comp (Z)
     (m)        (m/s)         (degrees)       (degrees)       (m/s)        (m/s)        (m/s)   
   ------    ----------   ----------------  --------------  ----------   ----------   ----------
    168.4       10.78            0.00            0.00         10.78         0.00         0.00
    163.7       10.74            0.00            0.00         10.74         0.00         0.00
    159.1       10.71            0.00            0.00         10.71         0.00         0.00
    154.4       10.67            0.00            0.00         10.67         0.00         0.00
    149.8       10.63            0.00            0.00         10.63         0.00         0.00
    145.1       10.59            0.00            0.00         10.59         0.00         0.00
    140.5       10.55            0.00            0.00         10.55         0.00         0.00
    135.8       10.51            0.00            0.00         10.51         0.00         0.00
    131.2       10.46            0.00            0.00         10.46         0.00         0.00
    126.5       10.42            0.00            0.00         10.42         0.00         0.00
    121.9       10.37            0.00            0.00         10.37         0.00         0.00
    117.2       10.32            0.00            0.00         10.32         0.00         0.00
    112.6       10.27            0.00            0.00         10.27         0.00         0.00
    107.9       10.22            0.00            0.00         10.22         0.00         0.00
    103.3       10.17            0.00            0.00         10.17         0.00         0.00
     98.6       10.11            0.00            0.00         10.11         0.00         0.00
     94.0       10.05            0.00            0.00         10.05         0.00         0.00
     89.3        9.99            0.00            0.00          9.99         0.00         0.00
     84.7        9.93            0.00            0.00          9.93         0.00         0.00
     80.0        9.86            0.00            0.00          9.86         0.00         0.00
     75.4        9.79            0.00            0.00          9.79         0.00         0.00
     70.7        9.72            0.00            0.00          9.72         0.00         0.00
     66.1        9.64            0.00            0.00          9.64         0.00         0.00
     61.4        9.55            0.00            0.00          9.55         0.00         0.00
     56.8        9.46            0.00            0.00          9.46         0.00         0.00
     52.1        9.37            0.00            0.00          9.37         0.00         0.00
     47.5        9.26            0.00            0.00          9.26         0.00         0.00
     42.8        9.15            0.00            0.00          9.15         0.00         0.00
     38.2        9.02            0.00            0.00          9.02         0.00         0.00
     33.5        8.88            0.00            0.00          8.88         0.00         0.00
     28.9        8.73            0.00            0.00          8.73         0.00         0.00
     24.2        8.54            0.00            0.00          8.54         0.00         0.00
     19.6        8.33            0.00            0.00          8.33         0.00         0.00
     14.9        8.06            0.00            0.00          8.06         0.00         0.00
     10.3        7.71            0.00            0.00          7.71         0.00         0.00
      5.6        7.17            0.00            0.00          7.17         0.00         0.00
      1.0        5.83            0.00            0.00          5.83         0.00         0.00


Harvested Random Seeds after Generation of the Random Numbers:

     65026800 K 1
            0 K 2


Hub-Height Simulated Turbulence Statistical Summary:

   Type of Wind        Min (m/s)   Mean (m/s)    Max (m/s)  Sigma (m/s)       TI (%)
   ----------------    ---------   ----------    ---------  -----------       ------
   Longitudinal (u)         8.45         9.99        11.59        0.553        5.534
   Lateral (v)             -1.21         0.00         1.40        0.416        4.163
   Vertical (w)            -0.69        -0.00         0.80        0.236        2.359
   U component              8.45         9.99        11.59        0.553        5.534
   V component             -1.21         0.00         1.40        0.416        4.163
   W component             -0.69        -0.00         0.80        0.236        2.359
   Horizontal (U&V)         8.45        10.00        11.61        0.552        5.522
   Total                    8.45        10.00        11.61        0.552        5.522

                       Min Reynolds     Mean Reynolds    Max Reynolds    Correlation
   Product             Stress (m/s)^2   Stress (m/s)^2   Stress (m/s)^2  Coefficient
   ----------------    --------------   --------------   --------------  -----------
   u'w'                     -0.756             0.001             0.529         0.006
   u'v'                     -1.140             0.003             1.170         0.011
   v'w'                     -0.689            -0.007             0.515        -0.068


   Friction Velocity (Ustar)  =      0.027 m/s
   Maximum Instantaneous TKE  =      1.543 (m/s)^2
   Maximum Instantaneous CTKE =      0.585 (m/s)^2


Grid Point Variance Summary:

   Y-coord  -79.05  -74.40  -69.75  -65.10  -60.45  -55.80  -51.15  -46.50  -41.85  -37.20  -32.55  -27.90  -23.25  -18.60  -13.95   -9.30   -4.65    0.00    4.65    9.30   13.95   18.60   23.25   27.90   32.55   37.20   41.85   46.50   51.15   55.80   60.45   65.10   69.75   74.40   79.05

   Height   Standard deviation at grid points for the u component:
   168.40    0.510   0.478   0.495   0.461   0.482   0.503   0.484   0.481   0.466   0.454   0.437   0.457   0.469   0.465   0.499   0.524   0.494   0.510   0.519   0.544   0.518   0.505   0.537   0.555   0.544   0.558   0.565   0.549   0.525   0.521   0.510   0.489   0.512   0.535   0.547
   163.75    0.499   0.495   0.484   0.472   0.449   0.481   0.454   0.458   0.467   0.467   0.482   0.486   0.493   0.511   0.535   0.521   0.527   0.506   0.502   0.549   0.513   0.530   0.523   0.561   0.583   0.504   0.502   0.497   0.502   0.525   0.483   0.482   0.488   0.517   0.515
   159.10    0.504   0.496   0.480   0.492   0.487   0.478   0.488   0.467   0.456   0.489   0.493   0.545   0.554   0.587   0.568   0.519   0.507   0.497   0.550   0.549   0.494   0.497   0.560   0.567   0.585   0.532   0.502   0.484   0.504   0.530   0.486   0.455   0.483   0.462   0.497
   154.45    0.508   0.514   0.473   0.492   0.462   0.443   0.450   0.478   0.496   0.515   0.536   0.503   0.525   0.541   0.535   0.507   0.522   0.512   0.545   0.521   0.478   0.472   0.516   0.550   0.570   0.510   0.500   0.483   0.485   0.489   0.510   0.492   0.510   0.501   0.505
   149.80    0.497   0.506   0.500   0.524   0.516   0.509   0.505   0.511   0.516   0.516   0.537   0.542   0.492   0.516   0.492   0.516   0.496   0.499   0.487   0.493   0.457   0.494   0.510   0.499   0.529   0.514   0.493   0.533   0.528   0.526   0.563   0.514   0.564   0.544   0.515
   145.15    0.535   0.521   0.501   0.540   0.544   0.506   0.544   0.568   0.563   0.531   0.550   0.550   0.559   0.491   0.486   0.518   0.564   0.497   0.494   0.479   0.515   0.480   0.481   0.496   0.508   0.519   0.557   0.530   0.532   0.539   0.542   0.546   0.532   0.536   0.546
   140.50    0.576   0.557   0.565   0.530   0.551   0.521   0.501   0.503   0.537   0.577   0.569   0.546   0.523   0.511   0.513   0.499   0.534   0.506   0.501   0.478   0.482   0.495   0.501   0.517   0.509   0.553   0.557   0.557   0.530   0.516   0.513   0.533   0.556   0.560   0.560
   135.85    0.536   0.585   0.598   0.574   0.601   0.533   0.507   0.513   0.580   0.530   0.545   0.557   0.536   0.531   0.486   0.525   0.502   0.490   0.438   0.495   0.507   0.521   0.474   0.493   0.504   0.539   0.548   0.550   0.543   0.544   0.552   0.548   0.525   0.551   0.599
   131.20    0.562   0.560   0.578   0.641   0.592   0.524   0.550   0.574   0.601   0.590   0.569   0.548   0.507   0.495   0.474   0.466   0.531   0.532   0.458   0.475   0.482   0.476   0.530   0.509   0.506   0.480   0.510   0.537   0.538   0.521   0.528   0.513   0.555   0.551   0.622
   126.55    0.525   0.539   0.546   0.596   0.555   0.580   0.579   0.578   0.549   0.598   0.582   0.575   0.532   0.507   0.484   0.507   0.495   0.513   0.480   0.489   0.470   0.487   0.501   0.543   0.509   0.512   0.509   0.546   0.535   0.528   0.555   0.546   0.561   0.579   0.612
   121.90    0.531   0.569   0.537   0.555   0.601   0.592   0.587   0.574   0.608   0.581   0.560   0.588   0.523   0.496   0.526   0.487   0.486   0.473   0.466   0.518   0.470   0.482   0.484   0.501   0.496   0.534   0.502   0.524   0.508   0.538   0.569   0.513   0.552   0.594   0.618
   117.25    0.538   0.565   0.490   0.491   0.552   0.567   0.569   0.564   0.575   0.564   0.526   0.557   0.547   0.534   0.532   0.495   0.498   0.517   0.535   0.531   0.523   0.479   0.471   0.495   0.510   0.511   0.493   0.507   0.488   0.504   0.531   0.543   0.596   0.612   0.646
   112.60    0.590   0.562   0.551   0.479   0.542   0.549   0.540   0.543   0.537   0.579   0.593   0.568   0.585   0.564   0.544   0.550   0.526   0.496   0.556   0.554   0.541   0.520   0.495   0.487   0.502   0.475   0.491   0.481   0.472   0.523   0.567   0.574   0.603   0.657   0.644
   107.95    0.565   0.583   0.548   0.527   0.488   0.520   0.529   0.536   0.558   0.594   0.578   0.615   0.560   0.571   0.548   0.510   0.514   0.531   0.541   0.542   0.510   0.521   0.498   0.491   0.515   0.498   0.467   0.480   0.469   0.505   0.542   0.556   0.573   0.633   0.626
   103.30    0.539   0.531   0.527   0.506   0.535   0.508   0.467   0.525   0.533   0.562   0.597   0.579   0.601   0.608   0.542   0.529   0.529   0.521   0.513   0.521   0.533   0.534   0.533   0.531   0.553   0.546   0.491   0.483   0.475   0.489   0.545   0.542   0.568   0.607   0.588
    98.65    0.517   0.524   0.496   0.465   0.499   0.513   0.479   0.540   0.546   0.580   0.611   0.643   0.639   0.599   0.564   0.533   0.532   0.523   0.532   0.538   0.535   0.528   0.489   0.506   0.491   0.493   0.499   0.505   0.519   0.523   0.514   0.529   0.548   0.595   0.609
    94.00    0.530   0.553   0.524   0.508   0.535   0.546   0.539   0.543   0.529   0.579   0.641   0.636   0.665   0.643   0.617   0.588   0.543   0.554   0.514   0.535   0.534   0.546   0.500   0.480   0.490   0.491   0.505   0.511   0.534   0.530   0.519   0.535   0.555   0.538   0.561
    89.35    0.511   0.556   0.553   0.522   0.550   0.589   0.602   0.539   0.581   0.639   0.650   0.624   0.633   0.676   0.605   0.630   0.599   0.553   0.569   0.573   0.572   0.523   0.522   0.497   0.501   0.514   0.491   0.494   0.517   0.477   0.497   0.464   0.500   0.532   0.576
    84.70    0.545   0.532   0.537   0.583   0.591   0.608   0.617   0.568   0.591   0.601   0.646   0.657   0.685   0.684   0.703   0.689   0.622   0.563   0.589   0.601   0.591   0.542   0.536   0.522   0.513   0.513   0.506   0.506   0.475   0.460   0.454   0.479   0.493   0.515   0.522
    80.05    0.552   0.546   0.531   0.587   0.641   0.623   0.628   0.631   0.589   0.588   0.617   0.690   0.693   0.726   0.692   0.692   0.671   0.586   0.563   0.569   0.587   0.578   0.573   0.537   0.565   0.569   0.536   0.500   0.507   0.490   0.501   0.518   0.519   0.474   0.505
    75.40    0.540   0.531   0.541   0.580   0.600   0.657   0.614   0.620   0.638   0.614   0.664   0.681   0.670   0.728   0.718   0.643   0.595   0.612   0.553   0.564   0.574   0.600   0.583   0.562   0.573   0.561   0.534   0.531   0.511   0.511   0.490   0.519   0.521   0.518   0.501
    70.75    0.533   0.568   0.522   0.616   0.632   0.631   0.643   0.655   0.671   0.655   0.686   0.711   0.749   0.729   0.709   0.667   0.611   0.615   0.542   0.551   0.595   0.591   0.593   0.615   0.568   0.549   0.527   0.529   0.515   0.523   0.499   0.510   0.539   0.529   0.543
    66.10    0.506   0.540   0.542   0.592   0.624   0.650   0.657   0.622   0.641   0.654   0.687   0.717   0.748   0.703   0.685   0.653   0.647   0.636   0.593   0.562   0.575   0.570   0.587   0.583   0.581   0.578   0.565   0.606   0.585   0.542   0.514   0.505   0.509   0.525   0.494
    61.45    0.531   0.586   0.608   0.652   0.579   0.641   0.633   0.595   0.626   0.665   0.645   0.677   0.705   0.684   0.703   0.672   0.614   0.643   0.622   0.566   0.559   0.536   0.578   0.521   0.555   0.559   0.569   0.614   0.614   0.541   0.562   0.525   0.514   0.505   0.510
    56.80    0.574   0.596   0.582   0.610   0.595   0.627   0.612   0.616   0.634   0.624   0.649   0.651   0.650   0.665   0.674   0.622   0.637   0.638   0.638   0.610   0.559   0.585   0.576   0.555   0.535   0.589   0.620   0.630   0.616   0.563   0.532   0.531   0.515   0.494   0.480
    52.15    0.564   0.577   0.560   0.588   0.621   0.604   0.637   0.613   0.608   0.640   0.617   0.640   0.573   0.615   0.621   0.646   0.640   0.620   0.594   0.580   0.573   0.577   0.560   0.563   0.580   0.602   0.625   0.577   0.571   0.594   0.550   0.577   0.544   0.514   0.508
    47.50    0.579   0.624   0.604   0.592   0.597   0.619   0.600   0.602   0.602   0.585   0.592   0.600   0.594   0.558   0.597   0.620   0.617   0.568   0.553   0.560   0.583   0.564   0.537   0.576   0.551   0.587   0.627   0.586   0.561   0.551   0.565   0.577   0.595   0.549   0.511
    42.85    0.579   0.617   0.602   0.596   0.604   0.634   0.621   0.582   0.561   0.536   0.557   0.558   0.578   0.573   0.615   0.618   0.566   0.551   0.526   0.563   0.591   0.588   0.517   0.552   0.580   0.584   0.618   0.644   0.566   0.526   0.514   0.561   0.581   0.585   0.541
    38.20    0.538   0.576   0.592   0.585   0.601   0.587   0.569   0.556   0.536   0.504   0.503   0.566   0.597   0.597   0.621   0.575   0.583   0.585   0.590   0.579   0.568   0.576   0.549   0.531   0.544   0.594   0.612   0.632   0.604   0.556   0.555   0.597   0.622   0.617   0.573
    33.55    0.547   0.532   0.550   0.569   0.582   0.539   0.528   0.535   0.543   0.509   0.481   0.537   0.591   0.636   0.619   0.623   0.597   0.565   0.565   0.583   0.579   0.635   0.591   0.542   0.554   0.586   0.624   0.615   0.603   0.582   0.577   0.592   0.597   0.617   0.573
    28.90    0.524   0.536   0.505   0.526   0.522   0.505   0.496   0.519   0.544   0.502   0.504   0.497   0.534   0.562   0.594   0.601   0.570   0.558   0.593   0.576   0.573   0.609   0.606   0.569   0.544   0.586   0.624   0.645   0.631   0.656   0.619   0.568   0.554   0.561   0.567
    24.25    0.502   0.521   0.527   0.522   0.535   0.514   0.467   0.496   0.496   0.470   0.488   0.485   0.504   0.539   0.591   0.567   0.560   0.594   0.599   0.554   0.545   0.588   0.593   0.563   0.539   0.562   0.601   0.622   0.603   0.630   0.593   0.588   0.548   0.558   0.543
    19.60    0.473   0.481   0.507   0.484   0.489   0.447   0.442   0.490   0.476   0.503   0.487   0.478   0.506   0.534   0.533   0.580   0.569   0.581   0.561   0.565   0.534   0.573   0.544   0.556   0.588   0.575   0.613   0.652   0.595   0.597   0.589   0.579   0.556   0.570   0.534
    14.95    0.475   0.443   0.488   0.489   0.470   0.476   0.507   0.462   0.459   0.502   0.535   0.533   0.512   0.506   0.492   0.525   0.542   0.551   0.559   0.567   0.551   0.518   0.555   0.615   0.600   0.588   0.616   0.636   0.644   0.664   0.591   0.579   0.547   0.546   0.494
    10.30    0.462   0.502   0.505   0.524   0.478   0.500   0.488   0.471   0.466   0.524   0.560   0.527   0.531   0.528   0.565   0.525   0.524   0.548   0.559   0.564   0.535   0.572   0.593   0.578   0.604   0.628   0.603   0.640   0.638   0.636   0.599   0.558   0.558   0.523   0.504
     5.65    0.499   0.515   0.516   0.539   0.489   0.522   0.496   0.516   0.499   0.518   0.552   0.540   0.533   0.568   0.592   0.569   0.553   0.536   0.538   0.541   0.556   0.600   0.579   0.559   0.577   0.598   0.610   0.618   0.587   0.561   0.530   0.544   0.538   0.525   0.491
     1.00    0.514   0.521   0.539   0.531   0.489   0.502   0.518   0.502   0.510   0.506   0.524   0.544   0.587   0.574   0.575   0.565   0.570   0.512   0.533   0.566   0.543   0.577   0.582   0.603   0.573   0.556   0.605   0.575   0.522   0.483   0.525   0.487   0.483   0.453   0.468

   Height   Standard deviation at grid points for the v component:
   168.40    0.442   0.441   0.449   0.410   0.411   0.414   0.411   0.403   0.373   0.389   0.398   0.395   0.395   0.391   0.391   0.380   0.383   0.372   0.379   0.369   0.355   0.383   0.352   0.364   0.362   0.346   0.347   0.323   0.347   0.349   0.358   0.365   0.345   0.346   0.351
   163.75    0.455   0.427   0.437   0.425   0.404   0.400   0.394   0.399   0.396   0.393   0.394   0.387   0.391   0.383   0.394   0.398   0.393   0.398   0.389   0.397   0.394   0.385   0.363   0.371   0.364   0.367   0.348   0.325   0.357   0.355   0.359   0.350   0.356   0.340   0.357
   159.10    0.431   0.420   0.415   0.406   0.393   0.398   0.406   0.393   0.388   0.379   0.398   0.381   0.395   0.389   0.411   0.410   0.401   0.390   0.398   0.393   0.393   0.368   0.365   0.368   0.373   0.381   0.372   0.350   0.365   0.353   0.361   0.360   0.351   0.353   0.369
   154.45    0.410   0.401   0.391   0.393   0.385   0.393   0.410   0.388   0.397   0.388   0.394   0.394   0.394   0.405   0.406   0.395   0.391   0.391   0.389   0.400   0.401   0.381   0.391   0.373   0.376   0.388   0.386   0.384   0.387   0.376   0.378   0.367   0.357   0.380   0.365
   149.80    0.403   0.392   0.371   0.389   0.379   0.375   0.377   0.383   0.395   0.387   0.400   0.406   0.405   0.395   0.388   0.391   0.410   0.387   0.380   0.388   0.383   0.373   0.379   0.387   0.387   0.371   0.403   0.396   0.381   0.387   0.373   0.365   0.362   0.371   0.377
   145.15    0.391   0.382   0.373   0.374   0.376   0.375   0.372   0.387   0.388   0.378   0.383   0.407   0.391   0.390   0.391   0.397   0.414   0.390   0.373   0.389   0.379   0.369   0.383   0.373   0.389   0.407   0.399   0.393   0.368   0.375   0.376   0.372   0.377   0.372   0.378
   140.50    0.389   0.378   0.380   0.376   0.374   0.369   0.373   0.376   0.381   0.387   0.384   0.384   0.403   0.395   0.403   0.415   0.406   0.394   0.397   0.401   0.374   0.377   0.399   0.378   0.375   0.385   0.393   0.380   0.393   0.404   0.389   0.381   0.388   0.370   0.382
   135.85    0.395   0.388   0.393   0.391   0.390   0.378   0.364   0.383   0.375   0.379   0.381   0.379   0.381   0.392   0.405   0.413   0.406   0.394   0.405   0.408   0.395   0.387   0.379   0.382   0.380   0.392   0.394   0.370   0.399   0.400   0.405   0.386   0.362   0.354   0.381
   131.20    0.372   0.382   0.380   0.384   0.395   0.389   0.385   0.369   0.389   0.371   0.379   0.369   0.378   0.383   0.391   0.406   0.377   0.386   0.395   0.387   0.385   0.381   0.386   0.364   0.352   0.379   0.395   0.392   0.405   0.392   0.381   0.380   0.378   0.362   0.368
   126.55    0.384   0.396   0.380   0.387   0.394   0.383   0.392   0.378   0.362   0.368   0.375   0.368   0.381   0.393   0.397   0.399   0.356   0.381   0.395   0.400   0.383   0.397   0.399   0.371   0.358   0.369   0.385   0.393   0.394   0.368   0.367   0.349   0.343   0.347   0.354
   121.90    0.377   0.383   0.382   0.391   0.395   0.389   0.385   0.375   0.363   0.375   0.380   0.358   0.368   0.399   0.398   0.372   0.377   0.385   0.398   0.388   0.366   0.372   0.387   0.383   0.389   0.366   0.376   0.384   0.377   0.373   0.342   0.337   0.336   0.335   0.338
   117.25    0.373   0.374   0.387   0.384   0.382   0.375   0.382   0.367   0.355   0.370   0.380   0.353   0.363   0.394   0.396   0.393   0.385   0.381   0.389   0.373   0.381   0.394   0.396   0.385   0.403   0.394   0.387   0.385   0.362   0.358   0.351   0.351   0.342   0.327   0.322
   112.60    0.384   0.401   0.387   0.362   0.377   0.382   0.380   0.381   0.381   0.381   0.382   0.384   0.373   0.383   0.402   0.385   0.383   0.404   0.395   0.397   0.385   0.383   0.404   0.410   0.390   0.404   0.398   0.392   0.374   0.349   0.358   0.357   0.325   0.315   0.323
   107.95    0.400   0.408   0.397   0.369   0.380   0.386   0.395   0.391   0.369   0.367   0.364   0.389   0.397   0.400   0.396   0.397   0.390   0.394   0.407   0.383   0.385   0.371   0.384   0.399   0.416   0.406   0.402   0.391   0.381   0.371   0.377   0.354   0.323   0.320   0.345
   103.30    0.380   0.389   0.364   0.352   0.372   0.375   0.395   0.381   0.379   0.376   0.380   0.377   0.390   0.417   0.399   0.403   0.409   0.418   0.404   0.417   0.403   0.392   0.392   0.386   0.399   0.377   0.396   0.394   0.371   0.375   0.372   0.359   0.332   0.328   0.344
    98.65    0.358   0.359   0.378   0.348   0.368   0.384   0.375   0.359   0.369   0.386   0.383   0.378   0.388   0.398   0.396   0.394   0.390   0.385   0.407   0.437   0.406   0.402   0.409   0.392   0.401   0.390   0.388   0.384   0.386   0.374   0.370   0.360   0.353   0.348   0.343
    94.00    0.364   0.374   0.378   0.393   0.385   0.390   0.382   0.383   0.371   0.377   0.383   0.396   0.395   0.379   0.384   0.407   0.399   0.386   0.413   0.420   0.393   0.384   0.384   0.393   0.401   0.410   0.404   0.405   0.392   0.367   0.367   0.366   0.346   0.345   0.345
    89.35    0.387   0.381   0.395   0.389   0.391   0.378   0.389   0.386   0.363   0.375   0.386   0.382   0.393   0.404   0.396   0.412   0.390   0.416   0.426   0.432   0.413   0.405   0.391   0.391   0.407   0.392   0.383   0.384   0.376   0.374   0.372   0.362   0.364   0.358   0.353
    84.70    0.379   0.393   0.398   0.403   0.389   0.396   0.391   0.378   0.370   0.374   0.373   0.377   0.385   0.385   0.401   0.423   0.419   0.431   0.440   0.431   0.433   0.426   0.408   0.394   0.395   0.380   0.381   0.387   0.374   0.381   0.376   0.372   0.353   0.366   0.369
    80.05    0.367   0.393   0.385   0.376   0.366   0.374   0.384   0.383   0.375   0.357   0.374   0.380   0.393   0.402   0.409   0.425   0.413   0.435   0.420   0.422   0.430   0.417   0.395   0.401   0.397   0.390   0.377   0.392   0.401   0.393   0.384   0.382   0.374   0.349   0.366
    75.40    0.378   0.389   0.382   0.386   0.378   0.397   0.390   0.368   0.370   0.360   0.375   0.388   0.408   0.401   0.410   0.431   0.445   0.439   0.407   0.418   0.405   0.402   0.398   0.385   0.383   0.370   0.381   0.397   0.411   0.405   0.381   0.360   0.357   0.341   0.374
    70.75    0.385   0.396   0.392   0.393   0.376   0.381   0.404   0.389   0.364   0.395   0.399   0.416   0.416   0.419   0.402   0.413   0.449   0.434   0.405   0.392   0.385   0.393   0.378   0.382   0.393   0.389   0.381   0.385   0.405   0.386   0.375   0.355   0.346   0.364   0.376
    66.10    0.375   0.376   0.394   0.402   0.397   0.398   0.392   0.385   0.387   0.400   0.404   0.424   0.427   0.441   0.428   0.415   0.446   0.421   0.417   0.394   0.393   0.375   0.390   0.387   0.402   0.407   0.415   0.414   0.420   0.393   0.387   0.386   0.372   0.379   0.388
    61.45    0.387   0.371   0.394   0.396   0.388   0.395   0.397   0.396   0.387   0.402   0.416   0.414   0.432   0.432   0.415   0.441   0.447   0.420   0.418   0.408   0.394   0.401   0.413   0.421   0.402   0.411   0.422   0.401   0.411   0.402   0.390   0.383   0.400   0.392   0.395
    56.80    0.366   0.378   0.378   0.390   0.392   0.388   0.394   0.398   0.409   0.419   0.414   0.418   0.415   0.434   0.429   0.439   0.426   0.424   0.425   0.403   0.386   0.388   0.393   0.399   0.388   0.384   0.395   0.404   0.397   0.403   0.399   0.394   0.403   0.382   0.388
    52.15    0.367   0.387   0.396   0.404   0.395   0.384   0.393   0.405   0.431   0.436   0.432   0.435   0.436   0.438   0.421   0.428   0.426   0.426   0.411   0.405   0.400   0.395   0.382   0.384   0.393   0.394   0.386   0.391   0.377   0.377   0.405   0.397   0.401   0.402   0.408
    47.50    0.387   0.393   0.393   0.392   0.390   0.405   0.405   0.403   0.405   0.424   0.432   0.443   0.430   0.423   0.413   0.403   0.420   0.431   0.419   0.416   0.430   0.415   0.418   0.412   0.409   0.398   0.397   0.377   0.380   0.383   0.402   0.417   0.416   0.437   0.426
    42.85    0.383   0.404   0.395   0.383   0.396   0.389   0.393   0.383   0.395   0.412   0.407   0.422   0.416   0.393   0.422   0.419   0.418   0.438   0.424   0.423   0.431   0.420   0.433   0.411   0.406   0.394   0.370   0.388   0.379   0.376   0.380   0.380   0.413   0.419   0.429
    38.20    0.398   0.401   0.398   0.394   0.399   0.388   0.378   0.375   0.398   0.417   0.407   0.428   0.410   0.419   0.436   0.452   0.451   0.438   0.436   0.439   0.452   0.437   0.411   0.415   0.396   0.393   0.409   0.404   0.410   0.389   0.391   0.394   0.401   0.398   0.414
    33.55    0.376   0.396   0.391   0.382   0.377   0.375   0.384   0.391   0.399   0.418   0.437   0.419   0.417   0.433   0.440   0.453   0.441   0.445   0.450   0.447   0.423   0.434   0.429   0.402   0.415   0.409   0.398   0.413   0.400   0.405   0.384   0.384   0.393   0.416   0.409
    28.90    0.371   0.378   0.377   0.390   0.386   0.376   0.379   0.406   0.384   0.430   0.429   0.426   0.424   0.433   0.437   0.430   0.437   0.436   0.441   0.424   0.419   0.412   0.388   0.387   0.417   0.409   0.398   0.406   0.413   0.399   0.385   0.385   0.393   0.399   0.391
    24.25    0.377   0.388   0.384   0.390   0.389   0.391   0.390   0.379   0.400   0.418   0.409   0.412   0.416   0.427   0.440   0.437   0.435   0.415   0.420   0.403   0.408   0.420   0.386   0.400   0.405   0.404   0.403   0.389   0.393   0.408   0.407   0.392   0.392   0.392   0.389
    19.60    0.391   0.401   0.385   0.383   0.393   0.390   0.386   0.385   0.373   0.403   0.402   0.405   0.412   0.421   0.432   0.443   0.412   0.405   0.394   0.398   0.386   0.384   0.384   0.395   0.416   0.391   0.400   0.387   0.396   0.419   0.407   0.394   0.385   0.379   0.384
    14.95    0.384   0.387   0.391   0.400   0.395   0.394   0.391   0.384   0.376   0.394   0.421   0.409   0.401   0.406   0.432   0.425   0.425   0.397   0.406   0.385   0.385   0.384   0.379   0.394   0.395   0.402   0.403   0.393   0.399   0.396   0.393   0.382   0.380   0.374   0.362
    10.30    0.396   0.395   0.387   0.407   0.419   0.397   0.391   0.390   0.385   0.386   0.394   0.394   0.391   0.400   0.415   0.421   0.409   0.413   0.417   0.405   0.383   0.379   0.372   0.359   0.382   0.403   0.412   0.373   0.388   0.383   0.379   0.370   0.371   0.346   0.354
     5.65    0.386   0.394   0.412   0.422   0.423   0.387   0.388   0.388   0.411   0.414   0.416   0.379   0.376   0.404   0.426   0.415   0.410   0.416   0.410   0.394   0.374   0.375   0.385   0.386   0.392   0.403   0.411   0.410   0.391   0.376   0.388   0.375   0.360   0.364   0.373
     1.00    0.392   0.396   0.418   0.422   0.422   0.397   0.396   0.408   0.420   0.428   0.427   0.400   0.384   0.417   0.408   0.409   0.416   0.414   0.400   0.379   0.379   0.374   0.392   0.392   0.396   0.404   0.390   0.395   0.385   0.378   0.382   0.358   0.356   0.357   0.340

   Height   Standard deviation at grid points for the w component:
   168.40    0.249   0.244   0.237   0.230   0.238   0.233   0.236   0.235   0.235   0.231   0.232   0.228   0.228   0.227   0.238   0.240   0.247   0.253   0.246   0.240   0.244   0.234   0.230   0.221   0.221   0.224   0.223   0.226   0.231   0.237   0.227   0.222   0.224   0.217   0.222
   163.75    0.241   0.242   0.234   0.234   0.237   0.235   0.238   0.240   0.242   0.234   0.233   0.233   0.236   0.242   0.233   0.246   0.248   0.239   0.238   0.234   0.236   0.229   0.232   0.226   0.230   0.232   0.232   0.227   0.229   0.229   0.220   0.214   0.222   0.221   0.225
   159.10    0.235   0.234   0.238   0.234   0.241   0.246   0.242   0.240   0.244   0.239   0.234   0.237   0.237   0.229   0.234   0.234   0.242   0.242   0.234   0.234   0.229   0.224   0.225   0.228   0.232   0.225   0.220   0.225   0.233   0.231   0.219   0.224   0.221   0.224   0.228
   154.45    0.239   0.237   0.237   0.236   0.233   0.237   0.240   0.235   0.234   0.235   0.229   0.233   0.231   0.226   0.225   0.229   0.237   0.223   0.229   0.229   0.224   0.222   0.223   0.224   0.228   0.231   0.237   0.235   0.230   0.228   0.224   0.222   0.222   0.226   0.221
   149.80    0.242   0.240   0.240   0.236   0.244   0.252   0.236   0.229   0.219   0.224   0.225   0.234   0.229   0.234   0.220   0.231   0.237   0.229   0.227   0.228   0.222   0.233   0.224   0.220   0.231   0.232   0.231   0.224   0.233   0.225   0.213   0.222   0.216   0.226   0.222
   145.15    0.238   0.242   0.241   0.235   0.242   0.244   0.249   0.247   0.231   0.234   0.234   0.228   0.238   0.234   0.228   0.234   0.234   0.228   0.220   0.235   0.234   0.245   0.244   0.236   0.233   0.236   0.226   0.233   0.223   0.225   0.223   0.221   0.218   0.221   0.220
   140.50    0.255   0.248   0.252   0.238   0.240   0.252   0.249   0.238   0.242   0.249   0.239   0.237   0.233   0.238   0.236   0.236   0.234   0.230   0.231   0.234   0.237   0.236   0.239   0.236   0.237   0.231   0.228   0.234   0.229   0.220   0.221   0.224   0.217   0.223   0.233
   135.85    0.244   0.240   0.248   0.242   0.243   0.248   0.258   0.248   0.250   0.253   0.262   0.259   0.252   0.241   0.231   0.231   0.228   0.231   0.232   0.238   0.239   0.240   0.235   0.230   0.229   0.223   0.225   0.230   0.230   0.224   0.221   0.226   0.229   0.221   0.236
   131.20    0.238   0.241   0.246   0.249   0.245   0.250   0.264   0.256   0.261   0.254   0.260   0.256   0.259   0.247   0.236   0.236   0.238   0.228   0.231   0.236   0.241   0.242   0.233   0.229   0.222   0.219   0.220   0.219   0.226   0.221   0.229   0.234   0.233   0.225   0.235
   126.55    0.236   0.236   0.238   0.235   0.249   0.246   0.254   0.270   0.261   0.262   0.273   0.270   0.266   0.256   0.241   0.237   0.243   0.241   0.240   0.232   0.236   0.239   0.235   0.231   0.227   0.220   0.220   0.220   0.215   0.229   0.226   0.231   0.223   0.224   0.232
   121.90    0.235   0.225   0.231   0.233   0.227   0.239   0.252   0.266   0.264   0.265   0.271   0.272   0.259   0.253   0.261   0.255   0.257   0.247   0.240   0.231   0.228   0.235   0.223   0.224   0.226   0.224   0.223   0.228   0.225   0.230   0.230   0.227   0.231   0.220   0.238
   117.25    0.226   0.236   0.232   0.233   0.231   0.240   0.258   0.264   0.269   0.266   0.269   0.264   0.253   0.255   0.249   0.261   0.259   0.261   0.237   0.236   0.227   0.232   0.232   0.231   0.230   0.230   0.235   0.230   0.226   0.223   0.229   0.226   0.231   0.237   0.241
   112.60    0.236   0.233   0.234   0.235   0.235   0.242   0.261   0.265   0.267   0.270   0.263   0.255   0.248   0.245   0.260   0.258   0.258   0.247   0.244   0.237   0.237   0.231   0.233   0.233   0.230   0.229   0.221   0.225   0.231   0.228   0.233   0.231   0.236   0.237   0.244
   107.95    0.242   0.250   0.235   0.249   0.239   0.242   0.249   0.256   0.265   0.257   0.253   0.251   0.243   0.247   0.237   0.244   0.256   0.249   0.241   0.251   0.240   0.232   0.222   0.230   0.232   0.227   0.224   0.234   0.245   0.230   0.240   0.232   0.234   0.252   0.251
   103.30    0.244   0.254   0.247   0.248   0.247   0.248   0.246   0.251   0.254   0.257   0.249   0.238   0.238   0.239   0.239   0.245   0.250   0.243   0.246   0.245   0.232   0.236   0.230   0.227   0.233   0.231   0.236   0.232   0.241   0.239   0.242   0.240   0.243   0.257   0.256
    98.65    0.249   0.252   0.254   0.244   0.243   0.232   0.252   0.252   0.255   0.246   0.233   0.233   0.234   0.232   0.233   0.235   0.244   0.237   0.241   0.237   0.239   0.235   0.231   0.240   0.228   0.240   0.241   0.237   0.227   0.229   0.235   0.226   0.238   0.255   0.251
    94.00    0.259   0.272   0.260   0.253   0.242   0.242   0.242   0.244   0.250   0.240   0.226   0.226   0.228   0.232   0.234   0.232   0.236   0.241   0.230   0.226   0.221   0.229   0.224   0.223   0.236   0.248   0.232   0.230   0.231   0.228   0.229   0.242   0.246   0.250   0.257
    89.35    0.251   0.250   0.245   0.235   0.237   0.223   0.229   0.231   0.234   0.230   0.228   0.224   0.226   0.222   0.230   0.232   0.237   0.236   0.232   0.227   0.224   0.235   0.233   0.229   0.241   0.234   0.225   0.232   0.231   0.228   0.243   0.245   0.247   0.249   0.252
    84.70    0.242   0.240   0.237   0.220   0.225   0.225   0.228   0.230   0.222   0.228   0.223   0.227   0.227   0.223   0.224   0.221   0.234   0.241   0.230   0.225   0.228   0.230   0.226   0.231   0.234   0.240   0.231   0.233   0.233   0.241   0.249   0.255   0.247   0.242   0.251
    80.05    0.240   0.237   0.226   0.220   0.221   0.218   0.231   0.240   0.222   0.221   0.218   0.222   0.226   0.226   0.227   0.236   0.239   0.235   0.229   0.228   0.230   0.224   0.211   0.214   0.219   0.212   0.214   0.228   0.243   0.245   0.243   0.259   0.263   0.253   0.255
    75.40    0.243   0.228   0.220   0.215   0.222   0.231   0.226   0.235   0.219   0.217   0.225   0.226   0.218   0.221   0.225   0.231   0.224   0.225   0.241   0.250   0.234   0.224   0.215   0.224   0.220   0.210   0.214   0.226   0.235   0.250   0.250   0.244   0.248   0.246   0.254
    70.75    0.237   0.230   0.228   0.226   0.221   0.224   0.224   0.228   0.223   0.227   0.233   0.231   0.225   0.227   0.226   0.218   0.223   0.228   0.233   0.235   0.232   0.232   0.237   0.225   0.219   0.212   0.219   0.225   0.241   0.248   0.245   0.239   0.238   0.248   0.243
    66.10    0.235   0.228   0.221   0.222   0.234   0.225   0.222   0.214   0.219   0.220   0.230   0.230   0.233   0.234   0.233   0.211   0.216   0.222   0.226   0.230   0.233   0.237   0.226   0.230   0.218   0.223   0.226   0.234   0.242   0.238   0.238   0.239   0.244   0.246   0.247
    61.45    0.222   0.233   0.223   0.232   0.234   0.224   0.218   0.216   0.212   0.219   0.221   0.223   0.227   0.232   0.222   0.211   0.219   0.224   0.232   0.228   0.233   0.225   0.226   0.232   0.220   0.224   0.231   0.237   0.245   0.233   0.231   0.235   0.234   0.242   0.238
    56.80    0.214   0.221   0.223   0.231   0.233   0.225   0.223   0.220   0.215   0.218   0.217   0.223   0.222   0.233   0.217   0.216   0.214   0.218   0.235   0.226   0.222   0.236   0.239   0.234   0.229   0.223   0.233   0.244   0.245   0.235   0.227   0.229   0.230   0.251   0.244
    52.15    0.211   0.215   0.226   0.225   0.228   0.219   0.215   0.212   0.217   0.222   0.215   0.216   0.219   0.218   0.219   0.219   0.215   0.227   0.237   0.235   0.237   0.244   0.242   0.225   0.224   0.209   0.223   0.239   0.244   0.239   0.232   0.228   0.240   0.238   0.247
    47.50    0.216   0.226   0.224   0.229   0.226   0.216   0.216   0.222   0.222   0.223   0.220   0.223   0.228   0.224   0.232   0.210   0.222   0.229   0.244   0.249   0.241   0.241   0.237   0.231   0.229   0.216   0.220   0.232   0.236   0.227   0.229   0.227   0.230   0.243   0.248
    42.85    0.225   0.227   0.225   0.236   0.241   0.230   0.228   0.229   0.221   0.225   0.224   0.219   0.224   0.217   0.222   0.220   0.226   0.230   0.228   0.238   0.233   0.238   0.230   0.233   0.220   0.220   0.224   0.235   0.228   0.229   0.228   0.230   0.230   0.243   0.242
    38.20    0.227   0.224   0.244   0.245   0.257   0.245   0.234   0.225   0.221   0.229   0.228   0.223   0.217   0.222   0.224   0.232   0.231   0.219   0.228   0.239   0.242   0.230   0.235   0.233   0.221   0.217   0.227   0.235   0.232   0.225   0.226   0.228   0.229   0.232   0.230
    33.55    0.220   0.220   0.235   0.236   0.253   0.246   0.237   0.224   0.220   0.228   0.224   0.231   0.227   0.225   0.222   0.229   0.226   0.226   0.233   0.247   0.240   0.233   0.241   0.224   0.228   0.220   0.221   0.228   0.236   0.231   0.235   0.231   0.239   0.230   0.230
    28.90    0.220   0.225   0.227   0.238   0.241   0.238   0.236   0.227   0.232   0.227   0.230   0.229   0.232   0.223   0.222   0.227   0.227   0.232   0.234   0.242   0.240   0.243   0.244   0.234   0.226   0.227   0.231   0.225   0.222   0.233   0.232   0.232   0.228   0.230   0.227
    24.25    0.215   0.221   0.233   0.242   0.237   0.230   0.226   0.221   0.237   0.232   0.234   0.236   0.236   0.226   0.228   0.230   0.228   0.221   0.231   0.236   0.236   0.229   0.240   0.239   0.235   0.232   0.223   0.224   0.224   0.225   0.234   0.234   0.225   0.219   0.229
    19.60    0.231   0.238   0.241   0.245   0.238   0.238   0.236   0.230   0.244   0.240   0.237   0.234   0.236   0.235   0.240   0.239   0.224   0.219   0.221   0.231   0.226   0.234   0.228   0.247   0.235   0.230   0.233   0.227   0.224   0.232   0.226   0.231   0.232   0.219   0.227
    14.95    0.222   0.236   0.252   0.244   0.242   0.244   0.229   0.233   0.249   0.241   0.245   0.230   0.243   0.245   0.242   0.233   0.232   0.221   0.229   0.227   0.244   0.237   0.235   0.234   0.230   0.239   0.236   0.234   0.225   0.231   0.229   0.230   0.234   0.229   0.228
    10.30    0.224   0.217   0.240   0.243   0.244   0.248   0.239   0.224   0.241   0.243   0.242   0.242   0.251   0.247   0.243   0.228   0.230   0.237   0.228   0.223   0.232   0.237   0.232   0.234   0.229   0.230   0.225   0.222   0.215   0.227   0.225   0.230   0.220   0.233   0.243
     5.65    0.225   0.226   0.235   0.232   0.234   0.238   0.236   0.234   0.236   0.235   0.239   0.244   0.247   0.242   0.236   0.236   0.243   0.242   0.228   0.225   0.227   0.225   0.234   0.234   0.240   0.232   0.219   0.218   0.214   0.211   0.211   0.219   0.224   0.234   0.237
     1.00    0.231   0.227   0.226   0.231   0.238   0.235   0.227   0.244   0.229   0.231   0.231   0.245   0.247   0.235   0.232   0.238   0.235   0.237   0.229   0.236   0.222   0.218   0.230   0.236   0.231   0.237   0.231   0.225   0.219   0.218   0.217   0.220   0.228   0.235   0.234

   Mean standard deviation across all grid points:
      u component:    0.550 m/s
      v component:    0.391 m/s
      w component:    0.234 m/s


U-component (X) statistics from the interpolated hub point:

   Mean =   9.9913 m/s
   TI   =   5.5341 %


Processing complete.  6099.8 CPU seconds used.
