
This summary file was generated by TurbSim (from OpenFAST-v3.5.3) on 20-Apr-2025 at 03:11:29.


Runtime Options:

1682697194  Random seed #1
    RANLUX  Type of random number generator
         F  Output binary HH turbulence parameters?
         F  Output formatted turbulence parameters?
         F  Output AeroDyn HH files?
         T  Output AeroDyn FF files?
         F  Output BLADED FF files?
         F  Output tower data?
         F  Output HAWC FF files?
         F  Output formatted FF files?
         T  Output coherent turbulence time step file?
 0 -  NONE  IEC turbulence models scaled to exact specified standard deviation


Turbine/Model Specifications:

        37  Vertical grid-point matrix dimension
        35  Horizontal grid-point matrix dimension
     0.250  Time step [seconds]
   900.000  Analysis time [seconds]
   900.000  Usable output time [seconds]
    89.350  Hub height [m]
   167.400  Grid height [m]
   158.100  Grid width [m]
     0.000  Vertical flow angle [degrees]
     0.000  Horizontal flow angle [degrees]


Meteorological Boundary Conditions:

    TIMESR  User-input time series spectral model
       N/A  IEC standard
       N/A  IEC turbulence characteristic
       N/A  IEC turbulence type
       N/A  IEC Extreme Turbulence Model (ETM) "c" parameter [m/s]
       PL   Wind profile type
    90.000  Reference height [m]
    10.000  Reference wind speed [m/s]
       N/A  Jet height [m]
     0.120  Power law exponent
     0.030  Surface roughness length [m]


Non-IEC Meteorological Boundary Conditions:

    45.000  Site latitude [degrees]
     0.050  Gradient Richardson number
     0.480  Friction or shear velocity [m/s]
       N/A  Mixing layer depth [m]
       N/A  Mean hub u'w' Reynolds stress
       N/A  Mean hub u'v' Reynolds stress
       N/A  Mean hub v'w' Reynolds stress


Spatial Coherence Models:

       IEC  u-component coherence model
       IEC  v-component coherence model
       IEC  w-component coherence model
(   12.000, 0.353E-03)  u-component coherence parameters
(   12.000, 0.353E-03)  v-component coherence parameters
(   12.000, 0.353E-03)  w-component coherence parameters
       N/A  Coherence exponent


Coherent Turbulence Scaling Parameters:

.\EventData
            Name of the path containing the coherent turbulence data files
       les  Type of coherent turbulence data files
     0.500  Disturbance scale (ratio of wave height to rotor diameter)
     0.500  Fractional location of tower centerline from right
     0.000  Fractional location of hub height from the bottom of the dataset
    30.000  Minimum start time for coherent structures [seconds]


Profiles from User-Defined Time-Series Input:

  Height   Wind Speed   Horizontal Angle   Vertical Angle
   (m)        (m/s)          (deg)              (deg)    
  ------   ----------   ----------------   --------------
   94.00      10.00          -0.63                0.00


You have requested that the following file(s) be generated:

   /kfs3/scratch/agupta/Projects/RL_Incubator/FinalRuns_Veer/Seed4/./FFSim_Seed4/Cond00_v10.0_PL0.12_TI7.5/Case0_wdirp00/Seed_5/TurbSim/HighT14.bts (AeroDyn/TurbSim full-field wind file)


Turbulence Simulation Scaling Parameter Summary:

   Turbulence model used                            =  User-input time series
   Gradient Richardson number                       =    0.050
   Monin-Obukhov (M-O) z/L parameter                =    0.067
   Monin-Obukhov (M-O) length scale                 = 1340.250 m
   Mean wind speed at hub height                    =    9.991 m/s

   Wind profile type                                =  Power law
   Power law exponent                               =    0.120
   Mean shear across rotor disk                     =    0.019 (m/s)/m
   Assumed rotor diameter                           =  158.100 m
   Surface roughness length                         =    0.030 m

   Nyquist frequency of turbulent wind field        =    2.000 Hz

   Number of time steps in the FFT                  =     3600
   Number of time steps output                      =     3600
   Number of points simulated                       =     1296


Mean Flow Angles:

   Vertical   =   0.0 degrees
   Horizontal =   0.0 degrees

Mean Wind Speed Profile:

   Height    Wind Speed   Horizontal Angle  Vertical Angle  U-comp (X)   V-comp (Y)   W-comp (Z)
     (m)        (m/s)         (degrees)       (degrees)       (m/s)        (m/s)        (m/s)   
   ------    ----------   ----------------  --------------  ----------   ----------   ----------
    168.4       10.78            0.00            0.00         10.78         0.00         0.00
    163.7       10.74            0.00            0.00         10.74         0.00         0.00
    159.1       10.71            0.00            0.00         10.71         0.00         0.00
    154.4       10.67            0.00            0.00         10.67         0.00         0.00
    149.8       10.63            0.00            0.00         10.63         0.00         0.00
    145.1       10.59            0.00            0.00         10.59         0.00         0.00
    140.5       10.55            0.00            0.00         10.55         0.00         0.00
    135.8       10.51            0.00            0.00         10.51         0.00         0.00
    131.2       10.46            0.00            0.00         10.46         0.00         0.00
    126.5       10.42            0.00            0.00         10.42         0.00         0.00
    121.9       10.37            0.00            0.00         10.37         0.00         0.00
    117.2       10.32            0.00            0.00         10.32         0.00         0.00
    112.6       10.27            0.00            0.00         10.27         0.00         0.00
    107.9       10.22            0.00            0.00         10.22         0.00         0.00
    103.3       10.17            0.00            0.00         10.17         0.00         0.00
     98.6       10.11            0.00            0.00         10.11         0.00         0.00
     94.0       10.05            0.00            0.00         10.05         0.00         0.00
     89.3        9.99            0.00            0.00          9.99         0.00         0.00
     84.7        9.93            0.00            0.00          9.93         0.00         0.00
     80.0        9.86            0.00            0.00          9.86         0.00         0.00
     75.4        9.79            0.00            0.00          9.79         0.00         0.00
     70.7        9.72            0.00            0.00          9.72         0.00         0.00
     66.1        9.64            0.00            0.00          9.64         0.00         0.00
     61.4        9.55            0.00            0.00          9.55         0.00         0.00
     56.8        9.46            0.00            0.00          9.46         0.00         0.00
     52.1        9.37            0.00            0.00          9.37         0.00         0.00
     47.5        9.26            0.00            0.00          9.26         0.00         0.00
     42.8        9.15            0.00            0.00          9.15         0.00         0.00
     38.2        9.02            0.00            0.00          9.02         0.00         0.00
     33.5        8.88            0.00            0.00          8.88         0.00         0.00
     28.9        8.73            0.00            0.00          8.73         0.00         0.00
     24.2        8.54            0.00            0.00          8.54         0.00         0.00
     19.6        8.33            0.00            0.00          8.33         0.00         0.00
     14.9        8.06            0.00            0.00          8.06         0.00         0.00
     10.3        7.71            0.00            0.00          7.71         0.00         0.00
      5.6        7.17            0.00            0.00          7.17         0.00         0.00
      1.0        5.83            0.00            0.00          5.83         0.00         0.00


Harvested Random Seeds after Generation of the Random Numbers:

     65026800 K 1
            0 K 2


Hub-Height Simulated Turbulence Statistical Summary:

   Type of Wind        Min (m/s)   Mean (m/s)    Max (m/s)  Sigma (m/s)       TI (%)
   ----------------    ---------   ----------    ---------  -----------       ------
   Longitudinal (u)         7.63         9.99        12.54        0.825        8.259
   Lateral (v)             -1.47         0.00         1.78        0.518        5.184
   Vertical (w)            -1.10         0.00         1.20        0.340        3.406
   U component              7.63         9.99        12.54        0.825        8.259
   V component             -1.47         0.00         1.78        0.518        5.184
   W component             -1.10         0.00         1.20        0.340        3.406
   Horizontal (U&V)         7.63        10.00        12.55        0.823        8.228
   Total                    7.63        10.01        12.56        0.823        8.220

                       Min Reynolds     Mean Reynolds    Max Reynolds    Correlation
   Product             Stress (m/s)^2   Stress (m/s)^2   Stress (m/s)^2  Coefficient
   ----------------    --------------   --------------   --------------  -----------
   u'w'                     -1.824             0.003             1.781         0.010
   u'v'                     -2.639            -0.033             1.670        -0.077
   v'w'                     -0.862             0.003             1.042         0.019


   Friction Velocity (Ustar)  =      0.053 m/s
   Maximum Instantaneous TKE  =      3.575 (m/s)^2
   Maximum Instantaneous CTKE =      1.374 (m/s)^2


Grid Point Variance Summary:

   Y-coord  -79.05  -74.40  -69.75  -65.10  -60.45  -55.80  -51.15  -46.50  -41.85  -37.20  -32.55  -27.90  -23.25  -18.60  -13.95   -9.30   -4.65    0.00    4.65    9.30   13.95   18.60   23.25   27.90   32.55   37.20   41.85   46.50   51.15   55.80   60.45   65.10   69.75   74.40   79.05

   Height   Standard deviation at grid points for the u component:
   168.40    0.858   0.796   0.839   0.793   0.801   0.784   0.790   0.805   0.753   0.701   0.709   0.701   0.711   0.768   0.792   0.817   0.788   0.852   0.812   0.841   0.810   0.836   0.867   0.848   0.796   0.806   0.832   0.817   0.800   0.787   0.826   0.745   0.759   0.712   0.768
   163.75    0.811   0.817   0.785   0.775   0.723   0.750   0.760   0.789   0.817   0.741   0.714   0.804   0.777   0.838   0.864   0.796   0.842   0.800   0.816   0.853   0.833   0.865   0.805   0.846   0.869   0.777   0.734   0.780   0.822   0.808   0.732   0.764   0.742   0.699   0.662
   159.10    0.747   0.741   0.768   0.753   0.780   0.777   0.763   0.766   0.797   0.815   0.764   0.870   0.872   0.969   0.944   0.889   0.880   0.859   0.886   0.865   0.821   0.790   0.881   0.825   0.858   0.796   0.774   0.737   0.802   0.839   0.758   0.745   0.748   0.684   0.710
   154.45    0.717   0.756   0.708   0.668   0.683   0.694   0.743   0.800   0.815   0.887   0.898   0.875   0.877   0.912   0.886   0.850   0.918   0.900   0.919   0.857   0.855   0.819   0.860   0.855   0.815   0.733   0.764   0.753   0.765   0.774   0.825   0.772   0.778   0.770   0.736
   149.80    0.700   0.735   0.721   0.714   0.741   0.766   0.825   0.883   0.875   0.887   0.993   0.910   0.903   0.906   0.858   0.872   0.893   0.882   0.856   0.834   0.829   0.844   0.839   0.750   0.725   0.787   0.782   0.860   0.836   0.810   0.893   0.793   0.875   0.870   0.744
   145.15    0.772   0.742   0.666   0.728   0.756   0.769   0.835   0.873   0.958   0.950   1.002   0.985   0.986   0.858   0.872   0.915   0.942   0.832   0.882   0.796   0.850   0.789   0.728   0.767   0.699   0.754   0.845   0.809   0.885   0.908   0.886   0.860   0.863   0.810   0.783
   140.50    0.764   0.768   0.720   0.695   0.742   0.757   0.789   0.811   0.919   0.931   0.949   0.949   0.994   0.928   0.848   0.892   0.892   0.893   0.855   0.825   0.828   0.786   0.765   0.731   0.710   0.800   0.835   0.883   0.870   0.895   0.888   0.865   0.860   0.845   0.874
   135.85    0.768   0.735   0.718   0.743   0.846   0.791   0.774   0.825   0.893   0.891   0.948   1.020   1.016   1.029   0.914   0.968   0.868   0.850   0.811   0.829   0.830   0.779   0.727   0.754   0.736   0.846   0.899   0.926   0.950   0.965   0.948   0.889   0.817   0.832   0.928
   131.20    0.833   0.703   0.765   0.848   0.814   0.768   0.845   0.900   0.941   0.895   0.966   0.955   0.974   0.964   0.928   0.923   0.961   0.931   0.876   0.823   0.794   0.781   0.825   0.791   0.805   0.818   0.876   0.948   0.920   0.932   0.910   0.841   0.856   0.852   0.883
   126.55    0.782   0.737   0.750   0.792   0.813   0.850   0.873   0.906   0.848   0.936   1.004   1.033   1.011   1.003   0.977   0.964   0.884   0.944   0.918   0.842   0.855   0.814   0.867   0.863   0.844   0.882   0.897   1.001   0.949   0.928   0.891   0.861   0.929   0.950   0.897
   121.90    0.733   0.830   0.769   0.829   0.915   0.915   0.878   0.878   0.949   0.924   0.957   0.947   0.951   0.903   0.959   0.862   0.900   0.886   0.808   0.886   0.851   0.829   0.838   0.793   0.805   0.928   0.912   1.013   0.967   0.938   0.920   0.858   0.952   0.964   0.962
   117.25    0.795   0.849   0.771   0.836   0.886   0.888   0.903   0.845   0.890   0.897   0.888   0.948   0.901   0.873   0.908   0.889   0.885   0.918   0.892   0.870   0.857   0.801   0.736   0.739   0.787   0.803   0.918   0.949   0.934   0.868   0.915   0.896   0.967   0.974   1.007
   112.60    0.882   0.865   0.805   0.763   0.860   0.882   0.879   0.886   0.868   0.940   0.956   0.917   0.972   0.864   0.887   0.923   0.884   0.833   0.843   0.853   0.884   0.802   0.805   0.814   0.784   0.754   0.843   0.905   0.905   0.904   0.961   0.949   1.010   1.026   0.986
   107.95    0.894   0.894   0.806   0.770   0.783   0.814   0.855   0.850   0.924   0.972   0.919   1.011   0.956   0.903   0.879   0.810   0.809   0.880   0.856   0.823   0.794   0.789   0.846   0.843   0.888   0.851   0.865   0.866   0.853   0.877   0.885   0.933   0.914   0.962   1.006
   103.30    0.841   0.798   0.739   0.713   0.778   0.821   0.802   0.800   0.835   0.896   1.010   0.925   0.963   0.940   0.909   0.861   0.867   0.865   0.798   0.739   0.775   0.842   0.903   0.979   0.960   0.970   0.847   0.827   0.825   0.781   0.828   0.872   0.912   0.972   0.956
    98.65    0.848   0.784   0.692   0.651   0.726   0.806   0.793   0.822   0.782   0.909   0.980   0.958   0.950   0.932   0.897   0.919   0.914   0.814   0.804   0.854   0.844   0.895   0.893   0.957   0.917   0.890   0.916   0.841   0.838   0.792   0.830   0.878   0.908   0.944   0.964
    94.00    0.856   0.872   0.783   0.758   0.822   0.862   0.866   0.861   0.808   0.869   0.956   0.997   1.007   0.948   0.962   0.971   0.887   0.837   0.840   0.893   0.900   0.955   0.912   0.916   0.857   0.871   0.866   0.854   0.833   0.776   0.819   0.830   0.826   0.848   0.829
    89.35    0.869   0.868   0.871   0.758   0.841   0.921   0.959   0.900   0.939   0.968   0.957   0.942   0.964   1.010   0.923   0.936   0.904   0.825   0.875   0.990   1.004   0.965   0.976   0.896   0.918   0.902   0.832   0.847   0.897   0.797   0.777   0.761   0.812   0.838   0.895
    84.70    0.892   0.854   0.794   0.812   0.860   0.918   1.035   0.935   0.939   0.914   0.950   0.983   1.042   1.058   1.012   0.996   0.872   0.858   0.928   1.042   1.038   1.021   1.053   0.966   0.935   0.892   0.883   0.889   0.878   0.892   0.764   0.793   0.816   0.813   0.876
    80.05    0.931   0.899   0.840   0.901   0.963   1.012   1.052   1.047   0.974   0.940   0.949   1.038   1.072   1.117   1.014   0.994   0.945   0.816   0.889   0.992   1.024   1.049   1.059   1.010   1.030   1.020   0.952   0.899   0.947   0.911   0.858   0.847   0.857   0.785   0.816
    75.40    0.939   0.913   0.900   0.940   0.963   1.083   1.013   1.023   1.052   1.042   1.096   1.080   1.066   1.149   1.143   0.968   0.905   0.899   0.841   0.936   0.943   1.081   1.030   1.036   1.040   1.009   0.896   0.912   0.905   0.905   0.856   0.825   0.829   0.823   0.847
    70.75    0.908   0.988   0.926   1.035   1.061   1.057   1.105   1.092   1.169   1.088   1.128   1.162   1.197   1.173   1.103   0.991   0.938   0.917   0.865   0.863   0.976   1.057   1.069   1.130   1.034   0.957   0.912   0.915   0.923   0.909   0.827   0.810   0.842   0.844   0.818
    66.10    0.895   0.949   0.934   0.988   1.025   1.104   1.083   1.063   1.141   1.102   1.110   1.119   1.152   1.130   1.028   0.927   1.009   1.008   0.948   0.892   0.941   1.023   1.069   1.086   1.050   1.049   0.981   1.092   1.091   0.959   0.897   0.852   0.835   0.788   0.795
    61.45    0.949   1.015   1.039   1.079   0.992   1.087   1.025   1.045   1.114   1.181   1.070   1.094   1.066   1.068   1.046   1.008   0.948   1.082   1.046   0.988   0.947   0.960   1.026   0.960   1.059   1.047   1.050   1.153   1.157   1.020   0.985   0.895   0.840   0.834   0.882
    56.80    1.013   1.050   0.980   0.971   0.976   1.068   1.028   1.118   1.158   1.105   1.114   1.081   1.008   1.042   0.983   0.970   1.012   1.054   1.116   1.072   0.951   1.013   1.038   0.984   0.981   1.098   1.160   1.171   1.171   1.046   0.984   0.897   0.863   0.854   0.845
    52.15    0.951   0.991   0.893   0.919   0.992   1.015   1.080   1.079   1.099   1.045   1.024   1.041   0.937   0.975   0.956   1.058   1.062   1.021   1.032   1.025   0.943   0.971   0.990   1.036   1.084   1.120   1.158   1.056   1.087   1.113   1.018   1.001   0.965   0.904   0.885
    47.50    0.963   1.033   0.995   0.958   0.971   1.003   1.006   1.008   1.027   1.008   0.935   0.967   0.930   0.929   0.951   1.044   1.002   0.956   0.922   0.940   0.996   1.005   0.958   1.046   0.991   1.040   1.139   0.998   1.032   1.032   0.974   0.983   1.028   0.972   0.904
    42.85    0.959   1.017   0.974   0.991   1.003   1.048   1.026   0.987   0.958   0.878   0.890   0.904   0.943   0.978   1.060   1.049   0.953   0.908   0.886   0.913   1.001   1.011   0.934   0.958   1.031   1.044   1.083   1.093   0.986   0.912   0.869   0.974   1.023   1.044   1.012
    38.20    0.845   0.947   0.987   0.939   0.964   0.956   0.994   0.925   0.913   0.845   0.898   0.967   1.012   1.039   1.085   1.001   1.004   1.003   1.005   1.001   0.962   1.010   0.953   0.908   0.950   1.033   1.044   1.029   1.013   0.895   0.912   0.997   1.054   1.052   1.022
    33.55    0.894   0.851   0.890   0.906   0.919   0.864   0.865   0.893   0.853   0.832   0.788   0.904   1.007   1.075   1.041   1.071   1.003   0.898   0.914   0.981   0.989   1.100   1.028   0.931   0.960   1.003   0.995   0.992   0.983   0.940   0.945   0.938   0.941   1.003   0.953
    28.90    0.879   0.842   0.809   0.802   0.812   0.807   0.788   0.811   0.866   0.830   0.873   0.906   0.943   0.975   1.011   1.001   0.947   0.898   0.947   0.949   0.953   1.026   1.038   0.961   0.904   1.007   1.019   1.003   1.043   1.022   0.928   0.881   0.902   0.931   0.928
    24.25    0.819   0.851   0.841   0.799   0.815   0.778   0.712   0.789   0.832   0.831   0.861   0.898   0.903   0.922   0.985   0.926   0.856   0.962   1.003   0.938   0.908   0.973   0.988   0.885   0.903   0.990   0.962   0.981   0.982   0.969   0.914   0.890   0.886   0.933   0.879
    19.60    0.765   0.773   0.831   0.758   0.744   0.711   0.706   0.782   0.785   0.880   0.892   0.879   0.928   0.971   0.915   0.953   0.887   0.908   0.900   0.949   0.885   0.975   0.912   0.907   0.999   0.963   0.976   1.048   0.941   0.919   0.928   0.933   0.942   0.951   0.902
    14.95    0.764   0.724   0.816   0.802   0.761   0.793   0.813   0.735   0.779   0.853   0.919   0.942   0.936   0.887   0.825   0.850   0.832   0.856   0.917   0.945   0.896   0.884   0.944   1.038   0.984   0.960   1.003   0.959   0.990   1.052   0.962   0.982   0.926   0.968   0.907
    10.30    0.732   0.825   0.810   0.876   0.801   0.832   0.781   0.771   0.813   0.882   0.977   0.925   0.936   0.911   0.922   0.824   0.823   0.853   0.907   0.914   0.881   0.971   0.996   1.002   1.019   1.002   0.897   0.952   0.978   1.022   1.011   0.900   0.935   0.900   0.870
     5.65    0.803   0.870   0.830   0.898   0.820   0.858   0.806   0.841   0.858   0.870   0.936   0.944   0.918   0.929   0.950   0.878   0.854   0.827   0.854   0.902   0.931   1.030   0.965   0.928   0.934   0.907   0.944   0.932   0.884   0.897   0.894   0.910   0.909   0.878   0.862
     1.00    0.858   0.865   0.908   0.875   0.817   0.819   0.860   0.828   0.883   0.871   0.894   0.902   0.926   0.918   0.886   0.819   0.858   0.809   0.855   0.918   0.890   0.973   0.958   1.011   0.932   0.894   0.957   0.893   0.820   0.753   0.841   0.769   0.770   0.729   0.807

   Height   Standard deviation at grid points for the v component:
   168.40    0.641   0.664   0.648   0.647   0.651   0.613   0.626   0.576   0.583   0.622   0.601   0.573   0.558   0.568   0.588   0.611   0.584   0.536   0.584   0.583   0.585   0.642   0.663   0.699   0.694   0.649   0.641   0.584   0.523   0.486   0.489   0.530   0.509   0.501   0.512
   163.75    0.644   0.651   0.627   0.620   0.639   0.631   0.594   0.623   0.595   0.588   0.590   0.590   0.580   0.580   0.577   0.618   0.608   0.605   0.599   0.580   0.586   0.616   0.639   0.689   0.672   0.661   0.637   0.593   0.557   0.508   0.503   0.498   0.520   0.497   0.496
   159.10    0.629   0.618   0.623   0.591   0.620   0.608   0.646   0.599   0.592   0.579   0.641   0.605   0.600   0.591   0.616   0.670   0.666   0.663   0.670   0.679   0.603   0.570   0.620   0.603   0.651   0.673   0.646   0.592   0.568   0.515   0.494   0.491   0.500   0.473   0.501
   154.45    0.618   0.632   0.626   0.595   0.585   0.632   0.616   0.593   0.610   0.641   0.630   0.662   0.623   0.644   0.675   0.698   0.652   0.654   0.671   0.706   0.647   0.606   0.616   0.594   0.637   0.640   0.657   0.635   0.556   0.532   0.502   0.491   0.503   0.489   0.508
   149.80    0.594   0.593   0.609   0.626   0.615   0.627   0.596   0.604   0.597   0.604   0.604   0.645   0.653   0.629   0.659   0.660   0.695   0.656   0.671   0.684   0.661   0.623   0.668   0.618   0.606   0.582   0.630   0.582   0.540   0.531   0.537   0.528   0.478   0.498   0.540
   145.15    0.574   0.570   0.590   0.605   0.615   0.630   0.623   0.646   0.606   0.566   0.586   0.614   0.630   0.644   0.671   0.658   0.670   0.642   0.621   0.668   0.687   0.691   0.678   0.641   0.602   0.609   0.591   0.582   0.519   0.507   0.523   0.549   0.509   0.534   0.510
   140.50    0.557   0.543   0.568   0.591   0.623   0.597   0.633   0.652   0.583   0.571   0.559   0.575   0.615   0.609   0.660   0.666   0.613   0.634   0.629   0.663   0.636   0.658   0.662   0.586   0.567   0.615   0.589   0.565   0.522   0.516   0.530   0.519   0.540   0.511   0.512
   135.85    0.582   0.548   0.615   0.596   0.637   0.626   0.600   0.624   0.588   0.575   0.553   0.595   0.613   0.627   0.643   0.602   0.604   0.637   0.625   0.589   0.612   0.620   0.625   0.619   0.638   0.616   0.610   0.564   0.534   0.510   0.517   0.529   0.535   0.538   0.557
   131.20    0.584   0.598   0.572   0.597   0.624   0.640   0.621   0.577   0.609   0.564   0.574   0.581   0.613   0.603   0.611   0.620   0.601   0.582   0.581   0.577   0.565   0.590   0.583   0.566   0.573   0.628   0.630   0.572   0.524   0.528   0.524   0.514   0.545   0.538   0.517
   126.55    0.565   0.548   0.573   0.627   0.620   0.610   0.620   0.575   0.594   0.604   0.558   0.588   0.611   0.606   0.571   0.606   0.526   0.540   0.531   0.594   0.581   0.567   0.559   0.571   0.558   0.603   0.591   0.563   0.565   0.497   0.502   0.483   0.522   0.522   0.551
   121.90    0.552   0.573   0.604   0.673   0.616   0.567   0.571   0.575   0.622   0.583   0.592   0.555   0.599   0.586   0.588   0.573   0.571   0.562   0.517   0.565   0.564   0.552   0.572   0.601   0.582   0.571   0.573   0.561   0.573   0.535   0.485   0.495   0.499   0.500   0.536
   117.25    0.561   0.569   0.579   0.606   0.596   0.545   0.559   0.574   0.575   0.584   0.596   0.544   0.583   0.587   0.561   0.595   0.598   0.557   0.553   0.514   0.552   0.567   0.573   0.544   0.492   0.505   0.524   0.551   0.526   0.540   0.501   0.520   0.481   0.481   0.486
   112.60    0.595   0.591   0.576   0.549   0.534   0.539   0.541   0.579   0.569   0.558   0.555   0.577   0.568   0.567   0.565   0.571   0.593   0.567   0.529   0.535   0.507   0.524   0.529   0.523   0.471   0.495   0.487   0.509   0.534   0.531   0.555   0.522   0.488   0.466   0.493
   107.95    0.593   0.600   0.568   0.543   0.526   0.535   0.539   0.566   0.574   0.534   0.529   0.542   0.599   0.585   0.523   0.559   0.565   0.542   0.497   0.499   0.502   0.509   0.520   0.532   0.508   0.519   0.479   0.515   0.518   0.527   0.515   0.487   0.463   0.453   0.490
   103.30    0.579   0.617   0.564   0.520   0.513   0.522   0.573   0.567   0.593   0.529   0.547   0.549   0.562   0.571   0.534   0.521   0.557   0.556   0.531   0.529   0.515   0.521   0.520   0.511   0.534   0.515   0.515   0.505   0.494   0.500   0.510   0.521   0.478   0.477   0.514
    98.65    0.528   0.549   0.558   0.528   0.552   0.542   0.560   0.555   0.565   0.550   0.539   0.564   0.533   0.544   0.527   0.542   0.545   0.579   0.548   0.603   0.545   0.510   0.487   0.487   0.519   0.515   0.515   0.511   0.502   0.504   0.529   0.544   0.524   0.542   0.552
    94.00    0.508   0.548   0.561   0.593   0.557   0.572   0.583   0.558   0.551   0.532   0.539   0.565   0.563   0.548   0.529   0.526   0.555   0.557   0.585   0.596   0.546   0.492   0.485   0.489   0.500   0.504   0.538   0.542   0.529   0.521   0.547   0.555   0.564   0.547   0.577
    89.35    0.551   0.545   0.567   0.534   0.543   0.566   0.586   0.544   0.550   0.535   0.559   0.565   0.574   0.538   0.487   0.512   0.512   0.518   0.537   0.574   0.513   0.515   0.528   0.489   0.516   0.529   0.537   0.534   0.537   0.535   0.552   0.536   0.550   0.533   0.546
    84.70    0.533   0.531   0.542   0.558   0.539   0.591   0.596   0.558   0.574   0.573   0.522   0.535   0.557   0.528   0.493   0.508   0.511   0.530   0.530   0.499   0.544   0.560   0.509   0.513   0.492   0.507   0.509   0.537   0.526   0.535   0.511   0.501   0.521   0.521   0.534
    80.05    0.500   0.519   0.533   0.555   0.537   0.543   0.575   0.572   0.579   0.558   0.527   0.520   0.537   0.519   0.528   0.513   0.510   0.535   0.514   0.505   0.535   0.560   0.530   0.514   0.503   0.485   0.513   0.520   0.512   0.493   0.499   0.496   0.511   0.493   0.506
    75.40    0.529   0.529   0.529   0.541   0.530   0.543   0.541   0.526   0.596   0.565   0.538   0.520   0.564   0.568   0.543   0.534   0.510   0.536   0.526   0.560   0.532   0.549   0.551   0.506   0.471   0.463   0.494   0.505   0.518   0.510   0.489   0.472   0.498   0.457   0.521
    70.75    0.526   0.507   0.532   0.550   0.573   0.521   0.574   0.609   0.591   0.601   0.582   0.537   0.558   0.565   0.517   0.501   0.552   0.509   0.497   0.513   0.514   0.521   0.528   0.515   0.503   0.499   0.503   0.513   0.508   0.482   0.483   0.470   0.471   0.490   0.539
    66.10    0.481   0.498   0.538   0.541   0.570   0.542   0.586   0.609   0.572   0.592   0.563   0.532   0.548   0.578   0.542   0.558   0.588   0.536   0.541   0.541   0.533   0.524   0.544   0.517   0.492   0.498   0.518   0.536   0.525   0.512   0.493   0.519   0.497   0.496   0.522
    61.45    0.501   0.491   0.558   0.568   0.599   0.581   0.586   0.606   0.569   0.531   0.525   0.506   0.535   0.553   0.540   0.579   0.623   0.539   0.578   0.552   0.528   0.539   0.566   0.568   0.495   0.543   0.549   0.552   0.536   0.549   0.502   0.492   0.538   0.562   0.579
    56.80    0.545   0.556   0.561   0.580   0.603   0.585   0.587   0.585   0.583   0.535   0.506   0.534   0.551   0.588   0.571   0.579   0.579   0.565   0.576   0.556   0.523   0.542   0.546   0.583   0.534   0.534   0.532   0.559   0.557   0.527   0.530   0.549   0.569   0.557   0.572
    52.15    0.597   0.621   0.587   0.611   0.623   0.589   0.556   0.563   0.589   0.551   0.512   0.551   0.582   0.595   0.594   0.585   0.542   0.530   0.548   0.541   0.552   0.530   0.504   0.510   0.519   0.554   0.552   0.560   0.543   0.529   0.550   0.572   0.586   0.553   0.553
    47.50    0.624   0.606   0.613   0.580   0.580   0.614   0.595   0.583   0.568   0.558   0.538   0.547   0.528   0.566   0.559   0.519   0.506   0.504   0.507   0.529   0.550   0.562   0.531   0.541   0.559   0.573   0.550   0.540   0.535   0.551   0.566   0.593   0.590   0.635   0.590
    42.85    0.596   0.615   0.609   0.597   0.600   0.573   0.573   0.556   0.536   0.540   0.557   0.571   0.530   0.538   0.587   0.551   0.522   0.548   0.519   0.502   0.555   0.526   0.554   0.561   0.512   0.537   0.499   0.527   0.503   0.535   0.541   0.539   0.591   0.580   0.613
    38.20    0.598   0.609   0.599   0.609   0.593   0.579   0.573   0.509   0.537   0.574   0.582   0.559   0.523   0.566   0.596   0.603   0.554   0.578   0.543   0.544   0.569   0.558   0.525   0.556   0.523   0.543   0.538   0.519   0.520   0.592   0.562   0.570   0.565   0.590   0.614
    33.55    0.576   0.595   0.602   0.591   0.600   0.551   0.572   0.558   0.547   0.565   0.586   0.550   0.546   0.577   0.549   0.535   0.591   0.568   0.552   0.547   0.525   0.540   0.534   0.523   0.584   0.572   0.509   0.528   0.564   0.617   0.604   0.570   0.543   0.553   0.611
    28.90    0.587   0.587   0.585   0.633   0.621   0.578   0.585   0.584   0.557   0.581   0.590   0.563   0.572   0.576   0.536   0.544   0.568   0.560   0.559   0.534   0.497   0.505   0.509   0.546   0.608   0.579   0.546   0.565   0.595   0.557   0.584   0.580   0.592   0.577   0.597
    24.25    0.605   0.606   0.631   0.656   0.605   0.567   0.549   0.574   0.556   0.580   0.591   0.555   0.541   0.545   0.574   0.552   0.588   0.606   0.579   0.574   0.532   0.551   0.545   0.631   0.652   0.620   0.598   0.563   0.531   0.543   0.590   0.550   0.548   0.585   0.619
    19.60    0.619   0.625   0.603   0.620   0.620   0.589   0.575   0.576   0.578   0.573   0.590   0.587   0.585   0.600   0.596   0.639   0.596   0.579   0.582   0.546   0.533   0.555   0.553   0.630   0.662   0.631   0.568   0.542   0.521   0.554   0.558   0.585   0.582   0.544   0.575
    14.95    0.619   0.602   0.625   0.640   0.602   0.574   0.577   0.602   0.563   0.589   0.579   0.592   0.582   0.607   0.635   0.649   0.659   0.592   0.564   0.526   0.545   0.586   0.609   0.618   0.606   0.571   0.569   0.532   0.535   0.543   0.513   0.513   0.553   0.565   0.551
    10.30    0.647   0.659   0.649   0.631   0.671   0.612   0.562   0.590   0.600   0.613   0.595   0.582   0.607   0.629   0.660   0.701   0.685   0.633   0.637   0.565   0.535   0.562   0.552   0.550   0.565   0.570   0.550   0.484   0.494   0.484   0.522   0.528   0.525   0.494   0.517
     5.65    0.614   0.636   0.683   0.686   0.716   0.626   0.616   0.622   0.637   0.640   0.658   0.629   0.643   0.637   0.628   0.656   0.667   0.671   0.626   0.609   0.584   0.553   0.575   0.522   0.526   0.530   0.511   0.507   0.510   0.506   0.537   0.521   0.519   0.501   0.545
     1.00    0.597   0.623   0.661   0.651   0.669   0.633   0.601   0.607   0.644   0.665   0.650   0.643   0.636   0.639   0.652   0.672   0.664   0.705   0.675   0.590   0.558   0.540   0.559   0.550   0.511   0.518   0.504   0.523   0.520   0.550   0.571   0.557   0.539   0.509   0.511

   Height   Standard deviation at grid points for the w component:
   168.40    0.337   0.356   0.336   0.326   0.348   0.340   0.337   0.346   0.350   0.339   0.345   0.343   0.337   0.338   0.342   0.339   0.341   0.358   0.348   0.350   0.358   0.347   0.355   0.341   0.324   0.332   0.327   0.338   0.337   0.342   0.334   0.329   0.325   0.322   0.330
   163.75    0.351   0.347   0.345   0.331   0.334   0.342   0.340   0.351   0.352   0.341   0.347   0.347   0.344   0.339   0.326   0.348   0.342   0.339   0.343   0.359   0.344   0.339   0.342   0.341   0.333   0.333   0.325   0.332   0.346   0.346   0.336   0.324   0.321   0.323   0.332
   159.10    0.336   0.327   0.340   0.338   0.341   0.336   0.343   0.336   0.342   0.338   0.346   0.345   0.341   0.341   0.331   0.332   0.339   0.333   0.338   0.349   0.332   0.334   0.342   0.329   0.338   0.320   0.319   0.337   0.341   0.347   0.332   0.330   0.326   0.332   0.348
   154.45    0.336   0.341   0.332   0.328   0.339   0.334   0.326   0.330   0.334   0.341   0.339   0.345   0.339   0.336   0.327   0.331   0.336   0.328   0.339   0.331   0.328   0.324   0.341   0.340   0.330   0.338   0.342   0.349   0.346   0.336   0.335   0.334   0.336   0.341   0.336
   149.80    0.342   0.339   0.332   0.325   0.336   0.330   0.323   0.322   0.320   0.328   0.333   0.340   0.344   0.349   0.340   0.332   0.334   0.332   0.338   0.344   0.327   0.336   0.330   0.332   0.340   0.332   0.345   0.346   0.338   0.327   0.328   0.343   0.340   0.350   0.335
   145.15    0.327   0.333   0.333   0.342   0.344   0.334   0.339   0.322   0.319   0.334   0.346   0.334   0.345   0.347   0.338   0.342   0.343   0.335   0.338   0.343   0.339   0.344   0.329   0.334   0.342   0.345   0.351   0.360   0.335   0.339   0.332   0.334   0.338   0.346   0.340
   140.50    0.335   0.330   0.334   0.335   0.334   0.343   0.337   0.317   0.323   0.355   0.348   0.338   0.329   0.336   0.342   0.352   0.360   0.343   0.339   0.343   0.343   0.346   0.340   0.335   0.347   0.347   0.345   0.357   0.354   0.339   0.339   0.330   0.327   0.342   0.347
   135.85    0.327   0.330   0.333   0.342   0.337   0.348   0.342   0.334   0.348   0.353   0.347   0.347   0.340   0.341   0.331   0.354   0.353   0.357   0.354   0.356   0.341   0.344   0.351   0.352   0.340   0.343   0.338   0.339   0.348   0.348   0.350   0.341   0.337   0.342   0.351
   131.20    0.338   0.333   0.333   0.336   0.340   0.336   0.347   0.343   0.344   0.352   0.352   0.343   0.337   0.338   0.342   0.356   0.358   0.351   0.364   0.358   0.349   0.355   0.343   0.347   0.347   0.336   0.339   0.340   0.344   0.347   0.346   0.350   0.346   0.343   0.352
   126.55    0.333   0.338   0.329   0.334   0.347   0.343   0.344   0.341   0.336   0.348   0.354   0.351   0.357   0.352   0.344   0.348   0.363   0.365   0.363   0.349   0.340   0.348   0.348   0.346   0.341   0.344   0.348   0.344   0.333   0.340   0.345   0.344   0.327   0.342   0.345
   121.90    0.332   0.328   0.332   0.334   0.337   0.327   0.337   0.344   0.338   0.348   0.355   0.356   0.350   0.349   0.356   0.362   0.372   0.375   0.360   0.356   0.338   0.347   0.342   0.342   0.345   0.346   0.338   0.347   0.339   0.339   0.350   0.338   0.343   0.328   0.343
   117.25    0.329   0.332   0.339   0.340   0.334   0.335   0.348   0.343   0.347   0.365   0.366   0.378   0.367   0.362   0.362   0.367   0.373   0.370   0.353   0.368   0.354   0.346   0.337   0.343   0.352   0.349   0.340   0.332   0.341   0.335   0.345   0.343   0.337   0.345   0.356
   112.60    0.334   0.342   0.341   0.342   0.340   0.347   0.358   0.354   0.353   0.375   0.377   0.374   0.363   0.362   0.378   0.366   0.363   0.364   0.348   0.348   0.347   0.339   0.338   0.337   0.341   0.334   0.326   0.328   0.326   0.335   0.340   0.347   0.342   0.349   0.365
   107.95    0.341   0.344   0.339   0.342   0.334   0.345   0.338   0.345   0.361   0.379   0.378   0.367   0.366   0.362   0.369   0.362   0.363   0.355   0.355   0.358   0.349   0.348   0.338   0.338   0.356   0.328   0.328   0.334   0.337   0.338   0.349   0.338   0.342   0.340   0.340
   103.30    0.338   0.338   0.355   0.342   0.346   0.340   0.338   0.342   0.353   0.364   0.371   0.364   0.362   0.350   0.360   0.356   0.356   0.351   0.347   0.347   0.341   0.356   0.350   0.326   0.337   0.341   0.332   0.340   0.344   0.342   0.343   0.351   0.356   0.347   0.342
    98.65    0.347   0.319   0.334   0.349   0.337   0.331   0.340   0.347   0.361   0.372   0.358   0.344   0.359   0.353   0.350   0.349   0.344   0.344   0.335   0.326   0.347   0.350   0.344   0.344   0.316   0.334   0.346   0.348   0.331   0.333   0.330   0.336   0.339   0.346   0.336
    94.00    0.346   0.342   0.339   0.344   0.340   0.341   0.347   0.361   0.369   0.372   0.356   0.358   0.354   0.364   0.352   0.347   0.353   0.332   0.333   0.327   0.332   0.346   0.333   0.329   0.314   0.327   0.334   0.344   0.331   0.335   0.339   0.347   0.341   0.341   0.337
    89.35    0.348   0.333   0.337   0.332   0.335   0.327   0.338   0.345   0.356   0.362   0.354   0.342   0.355   0.361   0.353   0.348   0.350   0.340   0.330   0.339   0.324   0.344   0.333   0.316   0.318   0.315   0.319   0.325   0.335   0.332   0.345   0.358   0.354   0.353   0.359
    84.70    0.343   0.350   0.355   0.336   0.336   0.330   0.332   0.335   0.335   0.360   0.356   0.351   0.356   0.360   0.361   0.347   0.352   0.353   0.349   0.346   0.322   0.334   0.321   0.335   0.324   0.331   0.315   0.330   0.332   0.346   0.352   0.357   0.362   0.352   0.355
    80.05    0.345   0.349   0.350   0.348   0.341   0.343   0.346   0.340   0.330   0.341   0.337   0.355   0.367   0.368   0.358   0.356   0.350   0.348   0.344   0.347   0.344   0.321   0.318   0.316   0.320   0.314   0.313   0.329   0.343   0.340   0.342   0.360   0.363   0.364   0.360
    75.40    0.345   0.344   0.349   0.342   0.342   0.341   0.336   0.337   0.328   0.332   0.334   0.356   0.358   0.358   0.367   0.374   0.342   0.345   0.341   0.359   0.346   0.342   0.338   0.339   0.323   0.310   0.322   0.335   0.332   0.340   0.347   0.347   0.351   0.347   0.356
    70.75    0.357   0.353   0.349   0.345   0.335   0.339   0.343   0.337   0.332   0.338   0.351   0.353   0.361   0.363   0.362   0.356   0.342   0.344   0.342   0.336   0.339   0.340   0.352   0.330   0.326   0.313   0.322   0.323   0.344   0.340   0.339   0.343   0.346   0.347   0.354
    66.10    0.343   0.340   0.331   0.331   0.348   0.348   0.344   0.329   0.338   0.342   0.359   0.361   0.367   0.363   0.360   0.340   0.344   0.339   0.348   0.329   0.329   0.346   0.349   0.343   0.324   0.324   0.336   0.338   0.342   0.342   0.337   0.334   0.348   0.354   0.350
    61.45    0.335   0.332   0.330   0.329   0.341   0.350   0.331   0.337   0.335   0.353   0.354   0.359   0.364   0.366   0.359   0.342   0.341   0.346   0.344   0.336   0.337   0.334   0.345   0.347   0.329   0.327   0.332   0.323   0.340   0.341   0.337   0.342   0.342   0.353   0.343
    56.80    0.322   0.334   0.339   0.335   0.345   0.344   0.327   0.336   0.337   0.349   0.359   0.361   0.350   0.369   0.360   0.351   0.336   0.333   0.347   0.335   0.344   0.346   0.353   0.347   0.343   0.327   0.339   0.347   0.351   0.340   0.342   0.344   0.340   0.351   0.338
    52.15    0.321   0.336   0.332   0.320   0.318   0.331   0.328   0.328   0.340   0.348   0.342   0.347   0.350   0.357   0.355   0.361   0.342   0.348   0.342   0.351   0.367   0.355   0.349   0.341   0.337   0.337   0.342   0.342   0.338   0.346   0.339   0.347   0.343   0.329   0.340
    47.50    0.344   0.346   0.334   0.328   0.326   0.311   0.328   0.330   0.338   0.347   0.350   0.359   0.368   0.360   0.363   0.343   0.352   0.346   0.341   0.359   0.348   0.351   0.343   0.341   0.339   0.337   0.337   0.333   0.335   0.324   0.327   0.333   0.331   0.339   0.342
    42.85    0.344   0.347   0.329   0.338   0.329   0.334   0.325   0.330   0.332   0.336   0.344   0.347   0.355   0.343   0.348   0.348   0.348   0.334   0.337   0.350   0.342   0.344   0.344   0.351   0.333   0.341   0.341   0.340   0.331   0.336   0.332   0.324   0.327   0.335   0.336
    38.20    0.343   0.347   0.354   0.336   0.341   0.344   0.329   0.330   0.330   0.339   0.350   0.352   0.345   0.348   0.351   0.357   0.350   0.335   0.331   0.344   0.341   0.339   0.351   0.352   0.342   0.337   0.339   0.343   0.343   0.327   0.333   0.331   0.321   0.334   0.334
    33.55    0.351   0.340   0.354   0.338   0.354   0.339   0.333   0.337   0.331   0.340   0.350   0.352   0.342   0.353   0.353   0.357   0.348   0.333   0.339   0.352   0.343   0.347   0.357   0.343   0.345   0.345   0.339   0.343   0.347   0.336   0.349   0.335   0.337   0.335   0.322
    28.90    0.348   0.347   0.359   0.349   0.357   0.350   0.351   0.341   0.337   0.342   0.354   0.348   0.348   0.360   0.356   0.358   0.347   0.346   0.347   0.345   0.340   0.346   0.351   0.350   0.341   0.344   0.343   0.338   0.336   0.329   0.336   0.339   0.338   0.337   0.317
    24.25    0.343   0.345   0.355   0.365   0.369   0.350   0.339   0.343   0.344   0.355   0.352   0.347   0.354   0.358   0.349   0.366   0.360   0.350   0.354   0.345   0.339   0.343   0.345   0.351   0.359   0.346   0.331   0.330   0.331   0.332   0.341   0.352   0.343   0.330   0.329
    19.60    0.345   0.367   0.372   0.365   0.355   0.350   0.344   0.334   0.347   0.355   0.361   0.353   0.355   0.358   0.363   0.367   0.347   0.336   0.333   0.343   0.340   0.345   0.334   0.351   0.346   0.350   0.345   0.339   0.332   0.344   0.338   0.338   0.334   0.322   0.313
    14.95    0.343   0.355   0.374   0.365   0.360   0.364   0.340   0.348   0.362   0.350   0.369   0.343   0.368   0.364   0.367   0.351   0.334   0.324   0.331   0.331   0.350   0.354   0.344   0.338   0.334   0.349   0.351   0.341   0.337   0.346   0.333   0.337   0.337   0.328   0.319
    10.30    0.344   0.343   0.366   0.360   0.362   0.356   0.348   0.333   0.350   0.355   0.349   0.350   0.370   0.355   0.359   0.338   0.332   0.327   0.325   0.327   0.343   0.346   0.338   0.348   0.333   0.341   0.339   0.321   0.320   0.332   0.332   0.334   0.333   0.335   0.340
     5.65    0.338   0.346   0.353   0.355   0.349   0.351   0.348   0.344   0.341   0.347   0.343   0.350   0.357   0.356   0.352   0.349   0.351   0.330   0.329   0.329   0.337   0.344   0.343   0.347   0.342   0.342   0.330   0.324   0.329   0.334   0.327   0.327   0.337   0.350   0.344
     1.00    0.347   0.343   0.342   0.353   0.357   0.349   0.331   0.353   0.341   0.343   0.341   0.349   0.361   0.349   0.350   0.343   0.345   0.341   0.344   0.341   0.330   0.331   0.348   0.351   0.337   0.342   0.326   0.327   0.321   0.333   0.331   0.330   0.337   0.350   0.338

   Mean standard deviation across all grid points:
      u component:    0.903 m/s
      v component:    0.566 m/s
      w component:    0.343 m/s


U-component (X) statistics from the interpolated hub point:

   Mean =   9.9913 m/s
   TI   =   8.2588 %


Processing complete.  6535.7 CPU seconds used.
