
This summary file was generated by TurbSim (from OpenFAST-v3.5.3) on 20-Apr-2025 at 02:07:46.


Runtime Options:

**********  Random seed #1
    RANLUX  Type of random number generator
         F  Output binary HH turbulence parameters?
         F  Output formatted turbulence parameters?
         F  Output AeroDyn HH files?
         T  Output AeroDyn FF files?
         F  Output BLADED FF files?
         F  Output tower data?
         F  Output HAWC FF files?
         F  Output formatted FF files?
         T  Output coherent turbulence time step file?
 0 -  NONE  IEC turbulence models scaled to exact specified standard deviation


Turbine/Model Specifications:

        37  Vertical grid-point matrix dimension
        35  Horizontal grid-point matrix dimension
     0.250  Time step [seconds]
   900.000  Analysis time [seconds]
   900.000  Usable output time [seconds]
    89.350  Hub height [m]
   167.400  Grid height [m]
   158.100  Grid width [m]
     0.000  Vertical flow angle [degrees]
     0.000  Horizontal flow angle [degrees]


Meteorological Boundary Conditions:

    TIMESR  User-input time series spectral model
       N/A  IEC standard
       N/A  IEC turbulence characteristic
       N/A  IEC turbulence type
       N/A  IEC Extreme Turbulence Model (ETM) "c" parameter [m/s]
       PL   Wind profile type
    90.000  Reference height [m]
    10.000  Reference wind speed [m/s]
       N/A  Jet height [m]
     0.120  Power law exponent
     0.030  Surface roughness length [m]


Non-IEC Meteorological Boundary Conditions:

    45.000  Site latitude [degrees]
     0.050  Gradient Richardson number
     0.480  Friction or shear velocity [m/s]
       N/A  Mixing layer depth [m]
       N/A  Mean hub u'w' Reynolds stress
       N/A  Mean hub u'v' Reynolds stress
       N/A  Mean hub v'w' Reynolds stress


Spatial Coherence Models:

       IEC  u-component coherence model
       IEC  v-component coherence model
       IEC  w-component coherence model
(   12.000, 0.353E-03)  u-component coherence parameters
(   12.000, 0.353E-03)  v-component coherence parameters
(   12.000, 0.353E-03)  w-component coherence parameters
       N/A  Coherence exponent


Coherent Turbulence Scaling Parameters:

.\EventData
            Name of the path containing the coherent turbulence data files
       les  Type of coherent turbulence data files
     1.000  Disturbance scale (ratio of wave height to rotor diameter)
     0.500  Fractional location of tower centerline from right
     0.500  Fractional location of hub height from the bottom of the dataset
    30.000  Minimum start time for coherent structures [seconds]


Profiles from User-Defined Time-Series Input:

  Height   Wind Speed   Horizontal Angle   Vertical Angle
   (m)        (m/s)          (deg)              (deg)    
  ------   ----------   ----------------   --------------
   94.00      10.00          -0.63                0.00


You have requested that the following file(s) be generated:

   /kfs3/scratch/agupta/Projects/RL_Incubator/FinalRuns_Veer/Seed4/./FFSim_Seed4/Cond00_v10.0_PL0.12_TI2.5/Case0_wdirp00/Seed_2/TurbSim/HighT6.bts (AeroDyn/TurbSim full-field wind file)


Turbulence Simulation Scaling Parameter Summary:

   Turbulence model used                            =  User-input time series
   Gradient Richardson number                       =    0.050
   Monin-Obukhov (M-O) z/L parameter                =    0.067
   Monin-Obukhov (M-O) length scale                 = 1340.250 m
   Mean wind speed at hub height                    =    9.991 m/s

   Wind profile type                                =  Power law
   Power law exponent                               =    0.120
   Mean shear across rotor disk                     =    0.019 (m/s)/m
   Assumed rotor diameter                           =  158.100 m
   Surface roughness length                         =    0.030 m

   Nyquist frequency of turbulent wind field        =    2.000 Hz

   Number of time steps in the FFT                  =     3600
   Number of time steps output                      =     3600
   Number of points simulated                       =     1296


Mean Flow Angles:

   Vertical   =   0.0 degrees
   Horizontal =   0.0 degrees

Mean Wind Speed Profile:

   Height    Wind Speed   Horizontal Angle  Vertical Angle  U-comp (X)   V-comp (Y)   W-comp (Z)
     (m)        (m/s)         (degrees)       (degrees)       (m/s)        (m/s)        (m/s)   
   ------    ----------   ----------------  --------------  ----------   ----------   ----------
    168.4       10.78            0.00            0.00         10.78         0.00         0.00
    163.7       10.74            0.00            0.00         10.74         0.00         0.00
    159.1       10.71            0.00            0.00         10.71         0.00         0.00
    154.4       10.67            0.00            0.00         10.67         0.00         0.00
    149.8       10.63            0.00            0.00         10.63         0.00         0.00
    145.1       10.59            0.00            0.00         10.59         0.00         0.00
    140.5       10.55            0.00            0.00         10.55         0.00         0.00
    135.8       10.51            0.00            0.00         10.51         0.00         0.00
    131.2       10.46            0.00            0.00         10.46         0.00         0.00
    126.5       10.42            0.00            0.00         10.42         0.00         0.00
    121.9       10.37            0.00            0.00         10.37         0.00         0.00
    117.2       10.32            0.00            0.00         10.32         0.00         0.00
    112.6       10.27            0.00            0.00         10.27         0.00         0.00
    107.9       10.22            0.00            0.00         10.22         0.00         0.00
    103.3       10.17            0.00            0.00         10.17         0.00         0.00
     98.6       10.11            0.00            0.00         10.11         0.00         0.00
     94.0       10.05            0.00            0.00         10.05         0.00         0.00
     89.3        9.99            0.00            0.00          9.99         0.00         0.00
     84.7        9.93            0.00            0.00          9.93         0.00         0.00
     80.0        9.86            0.00            0.00          9.86         0.00         0.00
     75.4        9.79            0.00            0.00          9.79         0.00         0.00
     70.7        9.72            0.00            0.00          9.72         0.00         0.00
     66.1        9.64            0.00            0.00          9.64         0.00         0.00
     61.4        9.55            0.00            0.00          9.55         0.00         0.00
     56.8        9.46            0.00            0.00          9.46         0.00         0.00
     52.1        9.37            0.00            0.00          9.37         0.00         0.00
     47.5        9.26            0.00            0.00          9.26         0.00         0.00
     42.8        9.15            0.00            0.00          9.15         0.00         0.00
     38.2        9.02            0.00            0.00          9.02         0.00         0.00
     33.5        8.88            0.00            0.00          8.88         0.00         0.00
     28.9        8.73            0.00            0.00          8.73         0.00         0.00
     24.2        8.54            0.00            0.00          8.54         0.00         0.00
     19.6        8.33            0.00            0.00          8.33         0.00         0.00
     14.9        8.06            0.00            0.00          8.06         0.00         0.00
     10.3        7.71            0.00            0.00          7.71         0.00         0.00
      5.6        7.17            0.00            0.00          7.17         0.00         0.00
      1.0        5.83            0.00            0.00          5.83         0.00         0.00


Harvested Random Seeds after Generation of the Random Numbers:

     65026800 K 1
            0 K 2


Hub-Height Simulated Turbulence Statistical Summary:

   Type of Wind        Min (m/s)   Mean (m/s)    Max (m/s)  Sigma (m/s)       TI (%)
   ----------------    ---------   ----------    ---------  -----------       ------
   Longitudinal (u)         9.27         9.99        10.60        0.211        2.115
   Lateral (v)             -0.55         0.00         0.59        0.199        1.994
   Vertical (w)            -0.51         0.00         0.38        0.117        1.175
   U component              9.27         9.99        10.60        0.211        2.115
   V component             -0.55         0.00         0.59        0.199        1.994
   W component             -0.51         0.00         0.38        0.117        1.175
   Horizontal (U&V)         9.27         9.99        10.60        0.211        2.114
   Total                    9.27         9.99        10.60        0.211        2.113

                       Min Reynolds     Mean Reynolds    Max Reynolds    Correlation
   Product             Stress (m/s)^2   Stress (m/s)^2   Stress (m/s)^2  Coefficient
   ----------------    --------------   --------------   --------------  -----------
   u'w'                     -0.181             0.001             0.144         0.057
   u'v'                     -0.292            -0.001             0.268        -0.032
   v'w'                     -0.111             0.001             0.127         0.045


   Friction Velocity (Ustar)  =      0.038 m/s
   Maximum Instantaneous TKE  =      0.323 (m/s)^2
   Maximum Instantaneous CTKE =      0.163 (m/s)^2


Grid Point Variance Summary:

   Y-coord  -79.05  -74.40  -69.75  -65.10  -60.45  -55.80  -51.15  -46.50  -41.85  -37.20  -32.55  -27.90  -23.25  -18.60  -13.95   -9.30   -4.65    0.00    4.65    9.30   13.95   18.60   23.25   27.90   32.55   37.20   41.85   46.50   51.15   55.80   60.45   65.10   69.75   74.40   79.05

   Height   Standard deviation at grid points for the u component:
   168.40    0.165   0.163   0.176   0.180   0.195   0.208   0.199   0.194   0.201   0.218   0.229   0.241   0.221   0.209   0.204   0.231   0.245   0.251   0.251   0.232   0.238   0.251   0.246   0.243   0.232   0.233   0.225   0.219   0.232   0.228   0.247   0.252   0.226   0.227   0.240
   163.75    0.176   0.167   0.181   0.190   0.196   0.201   0.208   0.186   0.201   0.216   0.228   0.234   0.241   0.224   0.218   0.235   0.258   0.240   0.240   0.231   0.231   0.236   0.244   0.232   0.227   0.205   0.206   0.219   0.220   0.217   0.227   0.235   0.250   0.237   0.260
   159.10    0.171   0.166   0.178   0.183   0.196   0.192   0.185   0.192   0.216   0.213   0.231   0.248   0.240   0.236   0.235   0.245   0.257   0.255   0.236   0.221   0.227   0.237   0.235   0.215   0.212   0.214   0.205   0.217   0.210   0.195   0.216   0.215   0.217   0.236   0.247
   154.45    0.170   0.163   0.181   0.188   0.197   0.201   0.197   0.205   0.212   0.222   0.240   0.247   0.254   0.263   0.246   0.247   0.242   0.235   0.235   0.215   0.237   0.241   0.229   0.222   0.216   0.210   0.204   0.209   0.206   0.208   0.209   0.210   0.219   0.215   0.243
   149.80    0.186   0.184   0.192   0.201   0.192   0.205   0.199   0.199   0.210   0.231   0.231   0.239   0.261   0.263   0.230   0.243   0.241   0.236   0.225   0.218   0.237   0.234   0.218   0.207   0.205   0.202   0.217   0.221   0.212   0.212   0.205   0.191   0.204   0.220   0.231
   145.15    0.195   0.195   0.201   0.210   0.206   0.210   0.213   0.212   0.214   0.230   0.240   0.241   0.254   0.248   0.240   0.266   0.257   0.237   0.221   0.221   0.222   0.229   0.208   0.221   0.205   0.213   0.220   0.218   0.219   0.233   0.217   0.196   0.194   0.218   0.225
   140.50    0.182   0.185   0.186   0.188   0.208   0.220   0.228   0.231   0.224   0.239   0.242   0.244   0.247   0.242   0.235   0.256   0.255   0.242   0.225   0.230   0.226   0.230   0.233   0.219   0.207   0.207   0.211   0.221   0.227   0.232   0.222   0.209   0.201   0.218   0.220
   135.85    0.200   0.194   0.212   0.203   0.206   0.239   0.236   0.216   0.222   0.234   0.250   0.239   0.238   0.236   0.257   0.260   0.271   0.240   0.246   0.239   0.230   0.229   0.223   0.211   0.210   0.190   0.195   0.206   0.210   0.214   0.218   0.207   0.211   0.209   0.203
   131.20    0.197   0.198   0.224   0.210   0.228   0.246   0.230   0.229   0.231   0.236   0.241   0.238   0.237   0.243   0.245   0.252   0.261   0.256   0.239   0.234   0.244   0.235   0.226   0.199   0.191   0.200   0.193   0.200   0.215   0.192   0.214   0.202   0.198   0.206   0.193
   126.55    0.205   0.216   0.206   0.225   0.220   0.235   0.238   0.228   0.225   0.237   0.248   0.251   0.239   0.226   0.241   0.248   0.257   0.246   0.250   0.246   0.250   0.224   0.214   0.205   0.184   0.195   0.199   0.195   0.207   0.195   0.216   0.202   0.206   0.211   0.188
   121.90    0.211   0.233   0.224   0.232   0.215   0.221   0.231   0.250   0.241   0.242   0.253   0.259   0.234   0.238   0.233   0.232   0.240   0.232   0.247   0.240   0.245   0.228   0.217   0.213   0.213   0.211   0.215   0.207   0.214   0.213   0.210   0.220   0.202   0.199   0.190
   117.25    0.235   0.238   0.228   0.237   0.241   0.229   0.238   0.253   0.246   0.249   0.256   0.247   0.237   0.237   0.228   0.223   0.243   0.249   0.254   0.257   0.250   0.225   0.228   0.213   0.224   0.222   0.228   0.225   0.230   0.237   0.224   0.217   0.202   0.198   0.196
   112.60    0.233   0.228   0.227   0.249   0.253   0.264   0.272   0.251   0.243   0.246   0.265   0.272   0.238   0.234   0.223   0.238   0.247   0.233   0.241   0.239   0.226   0.229   0.232   0.240   0.226   0.233   0.228   0.239   0.223   0.224   0.226   0.216   0.203   0.196   0.199
   107.95    0.225   0.232   0.230   0.235   0.243   0.260   0.269   0.248   0.238   0.250   0.258   0.261   0.247   0.243   0.225   0.229   0.237   0.233   0.237   0.240   0.223   0.236   0.242   0.244   0.236   0.249   0.233   0.228   0.217   0.222   0.205   0.215   0.200   0.197   0.207
   103.30    0.226   0.232   0.222   0.237   0.244   0.241   0.251   0.238   0.233   0.237   0.239   0.241   0.240   0.235   0.228   0.243   0.236   0.220   0.217   0.223   0.231   0.237   0.232   0.245   0.242   0.242   0.218   0.210   0.216   0.210   0.219   0.213   0.202   0.196   0.208
    98.65    0.236   0.228   0.227   0.234   0.238   0.248   0.244   0.246   0.232   0.223   0.222   0.218   0.224   0.222   0.229   0.235   0.230   0.214   0.222   0.224   0.223   0.237   0.261   0.251   0.246   0.245   0.239   0.229   0.226   0.241   0.223   0.215   0.217   0.204   0.210
    94.00    0.241   0.236   0.212   0.226   0.229   0.237   0.224   0.241   0.225   0.229   0.203   0.218   0.224   0.232   0.246   0.240   0.225   0.221   0.232   0.231   0.229   0.237   0.251   0.263   0.243   0.224   0.234   0.237   0.229   0.245   0.233   0.232   0.227   0.212   0.229
    89.35    0.229   0.234   0.225   0.216   0.214   0.231   0.240   0.242   0.235   0.227   0.220   0.221   0.225   0.230   0.226   0.221   0.225   0.211   0.206   0.227   0.224   0.228   0.243   0.258   0.249   0.233   0.229   0.233   0.222   0.232   0.245   0.249   0.232   0.217   0.232
    84.70    0.226   0.230   0.227   0.246   0.241   0.236   0.249   0.253   0.249   0.233   0.235   0.240   0.223   0.218   0.211   0.220   0.212   0.226   0.214   0.216   0.228   0.221   0.243   0.245   0.250   0.237   0.227   0.221   0.236   0.228   0.246   0.236   0.243   0.216   0.218
    80.05    0.220   0.229   0.240   0.245   0.259   0.246   0.254   0.268   0.257   0.238   0.232   0.238   0.226   0.235   0.236   0.235   0.247   0.238   0.235   0.242   0.228   0.246   0.240   0.248   0.238   0.230   0.231   0.236   0.228   0.236   0.242   0.232   0.226   0.219   0.220
    75.40    0.242   0.234   0.232   0.225   0.253   0.260   0.253   0.267   0.257   0.261   0.258   0.252   0.252   0.266   0.260   0.261   0.259   0.257   0.262   0.264   0.254   0.245   0.251   0.257   0.251   0.224   0.233   0.233   0.232   0.229   0.244   0.229   0.222   0.229   0.218
    70.75    0.249   0.233   0.235   0.236   0.246   0.250   0.269   0.275   0.269   0.254   0.253   0.266   0.259   0.263   0.260   0.265   0.248   0.254   0.253   0.248   0.249   0.229   0.238   0.241   0.243   0.240   0.241   0.257   0.234   0.234   0.231   0.209   0.218   0.214   0.224
    66.10    0.251   0.247   0.246   0.229   0.235   0.254   0.272   0.259   0.263   0.252   0.250   0.253   0.259   0.255   0.283   0.282   0.277   0.275   0.253   0.247   0.237   0.239   0.248   0.241   0.237   0.237   0.242   0.257   0.232   0.231   0.216   0.208   0.210   0.208   0.214
    61.45    0.234   0.250   0.244   0.232   0.240   0.257   0.276   0.275   0.268   0.261   0.262   0.272   0.278   0.271   0.288   0.300   0.279   0.272   0.271   0.270   0.256   0.260   0.274   0.265   0.259   0.250   0.259   0.250   0.241   0.231   0.216   0.213   0.214   0.202   0.207
    56.80    0.247   0.248   0.252   0.241   0.261   0.258   0.272   0.288   0.286   0.266   0.254   0.261   0.249   0.263   0.284   0.295   0.276   0.276   0.260   0.257   0.267   0.273   0.268   0.275   0.273   0.266   0.258   0.242   0.232   0.241   0.229   0.224   0.220   0.217   0.219
    52.15    0.248   0.256   0.247   0.246   0.263   0.293   0.272   0.280   0.284   0.259   0.256   0.269   0.268   0.250   0.263   0.286   0.282   0.281   0.279   0.277   0.262   0.263   0.278   0.289   0.257   0.269   0.250   0.245   0.253   0.235   0.229   0.238   0.243   0.228   0.220
    47.50    0.239   0.231   0.243   0.260   0.275   0.293   0.285   0.293   0.269   0.285   0.271   0.260   0.253   0.256   0.269   0.280   0.279   0.261   0.273   0.266   0.284   0.271   0.287   0.278   0.256   0.269   0.245   0.243   0.253   0.246   0.245   0.235   0.238   0.235   0.237
    42.85    0.244   0.239   0.251   0.281   0.279   0.272   0.285   0.271   0.277   0.266   0.271   0.278   0.272   0.292   0.274   0.277   0.263   0.264   0.265   0.263   0.266   0.282   0.277   0.266   0.265   0.258   0.262   0.263   0.241   0.250   0.244   0.248   0.255   0.242   0.245
    38.20    0.234   0.246   0.254   0.266   0.278   0.287   0.289   0.280   0.272   0.269   0.275   0.269   0.279   0.291   0.293   0.278   0.272   0.263   0.260   0.257   0.261   0.261   0.271   0.269   0.242   0.237   0.245   0.240   0.244   0.236   0.235   0.248   0.244   0.235   0.231
    33.55    0.241   0.228   0.248   0.254   0.273   0.270   0.279   0.259   0.250   0.251   0.264   0.274   0.264   0.276   0.285   0.284   0.286   0.272   0.281   0.256   0.250   0.242   0.265   0.256   0.250   0.241   0.240   0.245   0.236   0.232   0.216   0.236   0.234   0.231   0.240
    28.90    0.227   0.219   0.238   0.257   0.275   0.286   0.289   0.276   0.267   0.282   0.257   0.253   0.267   0.256   0.264   0.296   0.309   0.288   0.276   0.264   0.261   0.266   0.263   0.248   0.243   0.239   0.239   0.231   0.236   0.238   0.229   0.224   0.240   0.235   0.243
    24.25    0.219   0.218   0.232   0.227   0.260   0.283   0.287   0.285   0.258   0.275   0.257   0.269   0.258   0.245   0.265   0.283   0.293   0.287   0.283   0.290   0.274   0.256   0.271   0.258   0.245   0.241   0.242   0.254   0.244   0.249   0.231   0.237   0.241   0.241   0.240
    19.60    0.223   0.221   0.237   0.221   0.244   0.265   0.275   0.270   0.280   0.267   0.258   0.256   0.254   0.258   0.261   0.259   0.277   0.264   0.281   0.275   0.274   0.251   0.268   0.249   0.240   0.245   0.259   0.248   0.241   0.240   0.235   0.223   0.237   0.236   0.241
    14.95    0.232   0.246   0.239   0.234   0.243   0.251   0.263   0.273   0.262   0.261   0.264   0.261   0.246   0.237   0.231   0.254   0.262   0.265   0.270   0.281   0.260   0.252   0.239   0.239   0.247   0.259   0.263   0.251   0.242   0.252   0.227   0.228   0.241   0.248   0.245
    10.30    0.246   0.232   0.251   0.259   0.240   0.246   0.248   0.254   0.260   0.253   0.243   0.278   0.253   0.243   0.236   0.236   0.249   0.228   0.239   0.264   0.255   0.250   0.236   0.223   0.251   0.260   0.262   0.255   0.249   0.244   0.248   0.244   0.254   0.242   0.236
     5.65    0.248   0.240   0.241   0.245   0.238   0.233   0.232   0.219   0.245   0.255   0.268   0.273   0.267   0.251   0.241   0.231   0.224   0.237   0.249   0.250   0.254   0.239   0.225   0.228   0.245   0.251   0.253   0.254   0.262   0.265   0.249   0.266   0.252   0.241   0.250
     1.00    0.232   0.242   0.238   0.226   0.230   0.214   0.196   0.214   0.230   0.245   0.252   0.256   0.275   0.252   0.229   0.238   0.227   0.241   0.235   0.235   0.223   0.226   0.223   0.240   0.246   0.251   0.259   0.274   0.249   0.252   0.241   0.257   0.237   0.237   0.236

   Height   Standard deviation at grid points for the v component:
   168.40    0.219   0.209   0.205   0.194   0.200   0.202   0.194   0.177   0.186   0.189   0.193   0.190   0.175   0.186   0.175   0.170   0.174   0.179   0.181   0.188   0.194   0.192   0.192   0.179   0.175   0.176   0.170   0.164   0.171   0.177   0.199   0.197   0.199   0.212   0.190
   163.75    0.214   0.209   0.203   0.204   0.194   0.195   0.184   0.180   0.183   0.185   0.180   0.181   0.177   0.182   0.180   0.167   0.169   0.174   0.182   0.186   0.179   0.182   0.169   0.177   0.176   0.173   0.166   0.165   0.166   0.175   0.181   0.181   0.190   0.203   0.202
   159.10    0.216   0.215   0.212   0.199   0.186   0.190   0.188   0.186   0.186   0.189   0.188   0.173   0.165   0.179   0.180   0.174   0.174   0.170   0.172   0.178   0.177   0.171   0.178   0.175   0.185   0.174   0.164   0.164   0.157   0.166   0.170   0.189   0.196   0.206   0.213
   154.45    0.196   0.207   0.208   0.195   0.194   0.190   0.187   0.186   0.186   0.195   0.193   0.181   0.178   0.178   0.182   0.179   0.187   0.173   0.176   0.175   0.162   0.163   0.167   0.174   0.173   0.181   0.175   0.164   0.167   0.166   0.178   0.189   0.184   0.201   0.218
   149.80    0.195   0.190   0.204   0.191   0.191   0.193   0.190   0.178   0.175   0.189   0.188   0.186   0.181   0.185   0.187   0.185   0.178   0.173   0.169   0.172   0.160   0.161   0.166   0.168   0.178   0.174   0.175   0.167   0.177   0.177   0.173   0.192   0.190   0.204   0.224
   145.15    0.203   0.202   0.197   0.188   0.188   0.182   0.178   0.183   0.194   0.191   0.178   0.180   0.173   0.181   0.193   0.186   0.178   0.181   0.179   0.173   0.158   0.167   0.172   0.179   0.175   0.169   0.173   0.171   0.173   0.177   0.185   0.196   0.201   0.208   0.228
   140.50    0.202   0.197   0.190   0.190   0.176   0.175   0.174   0.180   0.185   0.175   0.177   0.177   0.174   0.167   0.176   0.176   0.174   0.178   0.181   0.171   0.165   0.170   0.176   0.177   0.173   0.178   0.182   0.182   0.188   0.186   0.182   0.194   0.202   0.209   0.225
   135.85    0.203   0.199   0.178   0.178   0.168   0.173   0.178   0.182   0.179   0.175   0.179   0.176   0.176   0.160   0.163   0.168   0.167   0.173   0.181   0.167   0.175   0.173   0.176   0.176   0.182   0.180   0.178   0.179   0.184   0.184   0.188   0.191   0.206   0.217   0.228
   131.20    0.194   0.189   0.191   0.178   0.165   0.168   0.175   0.177   0.175   0.174   0.170   0.160   0.167   0.172   0.171   0.161   0.169   0.186   0.177   0.178   0.177   0.174   0.181   0.180   0.180   0.178   0.170   0.172   0.172   0.177   0.190   0.197   0.196   0.209   0.211
   126.55    0.187   0.189   0.181   0.170   0.159   0.159   0.159   0.169   0.169   0.170   0.166   0.167   0.162   0.171   0.169   0.167   0.180   0.187   0.176   0.180   0.179   0.174   0.183   0.183   0.184   0.177   0.177   0.169   0.174   0.176   0.192   0.196   0.191   0.194   0.209
   121.90    0.190   0.183   0.177   0.167   0.160   0.154   0.165   0.163   0.171   0.170   0.164   0.160   0.154   0.162   0.169   0.166   0.175   0.182   0.196   0.193   0.193   0.190   0.202   0.193   0.186   0.177   0.168   0.179   0.180   0.182   0.188   0.184   0.192   0.184   0.197
   117.25    0.184   0.181   0.176   0.163   0.160   0.161   0.163   0.168   0.162   0.171   0.172   0.170   0.166   0.164   0.164   0.172   0.175   0.187   0.201   0.202   0.193   0.200   0.196   0.192   0.186   0.185   0.178   0.175   0.183   0.188   0.190   0.190   0.189   0.194   0.207
   112.60    0.188   0.189   0.184   0.178   0.161   0.158   0.159   0.158   0.162   0.163   0.174   0.167   0.162   0.172   0.174   0.180   0.192   0.192   0.195   0.201   0.190   0.184   0.190   0.183   0.181   0.179   0.187   0.188   0.182   0.198   0.182   0.195   0.183   0.196   0.204
   107.95    0.193   0.195   0.185   0.171   0.172   0.159   0.159   0.166   0.169   0.168   0.174   0.172   0.161   0.168   0.194   0.193   0.204   0.195   0.194   0.201   0.192   0.179   0.189   0.200   0.189   0.176   0.176   0.180   0.183   0.199   0.197   0.204   0.194   0.203   0.201
   103.30    0.199   0.195   0.187   0.186   0.170   0.173   0.169   0.175   0.170   0.175   0.178   0.179   0.178   0.181   0.198   0.199   0.213   0.200   0.196   0.199   0.190   0.177   0.182   0.195   0.191   0.188   0.182   0.194   0.199   0.199   0.205   0.212   0.205   0.200   0.211
    98.65    0.204   0.191   0.207   0.191   0.175   0.172   0.180   0.172   0.179   0.170   0.167   0.174   0.180   0.179   0.199   0.214   0.224   0.220   0.204   0.187   0.197   0.180   0.179   0.183   0.190   0.195   0.181   0.193   0.195   0.195   0.195   0.190   0.195   0.203   0.214
    94.00    0.200   0.207   0.210   0.196   0.185   0.173   0.173   0.175   0.178   0.174   0.176   0.175   0.187   0.198   0.201   0.210   0.215   0.209   0.206   0.189   0.187   0.184   0.183   0.180   0.179   0.188   0.181   0.178   0.185   0.186   0.184   0.184   0.193   0.205   0.203
    89.35    0.211   0.215   0.200   0.192   0.204   0.186   0.182   0.184   0.188   0.181   0.187   0.187   0.186   0.195   0.212   0.213   0.220   0.199   0.208   0.200   0.196   0.180   0.176   0.176   0.174   0.185   0.186   0.179   0.191   0.173   0.178   0.192   0.210   0.207   0.218
    84.70    0.211   0.214   0.202   0.199   0.200   0.193   0.194   0.192   0.188   0.178   0.188   0.193   0.184   0.203   0.226   0.233   0.217   0.206   0.206   0.194   0.192   0.179   0.182   0.187   0.180   0.179   0.182   0.180   0.180   0.170   0.169   0.194   0.208   0.211   0.219
    80.05    0.208   0.204   0.192   0.191   0.193   0.204   0.196   0.198   0.203   0.190   0.186   0.195   0.205   0.218   0.231   0.217   0.222   0.212   0.210   0.213   0.196   0.184   0.186   0.185   0.178   0.185   0.184   0.179   0.172   0.176   0.171   0.197   0.198   0.202   0.207
    75.40    0.199   0.189   0.184   0.193   0.205   0.213   0.205   0.208   0.210   0.219   0.206   0.206   0.212   0.213   0.217   0.213   0.217   0.214   0.218   0.226   0.212   0.208   0.190   0.176   0.183   0.183   0.190   0.193   0.185   0.177   0.187   0.194   0.199   0.205   0.204
    70.75    0.206   0.200   0.195   0.209   0.210   0.221   0.203   0.210   0.210   0.218   0.209   0.215   0.215   0.211   0.213   0.212   0.216   0.223   0.220   0.225   0.215   0.204   0.198   0.189   0.187   0.193   0.195   0.188   0.185   0.181   0.189   0.194   0.187   0.207   0.211
    66.10    0.212   0.209   0.205   0.213   0.218   0.212   0.209   0.205   0.212   0.225   0.215   0.208   0.212   0.219   0.212   0.222   0.225   0.223   0.215   0.217   0.212   0.211   0.211   0.192   0.189   0.189   0.189   0.191   0.175   0.186   0.195   0.193   0.198   0.209   0.205
    61.45    0.217   0.222   0.215   0.222   0.215   0.216   0.204   0.201   0.210   0.206   0.205   0.212   0.207   0.220   0.211   0.225   0.226   0.217   0.224   0.213   0.218   0.219   0.213   0.200   0.192   0.187   0.182   0.180   0.182   0.182   0.186   0.193   0.182   0.202   0.197
    56.80    0.224   0.226   0.227   0.224   0.215   0.218   0.210   0.206   0.204   0.210   0.204   0.205   0.202   0.212   0.216   0.218   0.217   0.210   0.209   0.212   0.216   0.208   0.211   0.200   0.191   0.178   0.177   0.179   0.181   0.185   0.172   0.181   0.189   0.189   0.209
    52.15    0.215   0.216   0.228   0.221   0.224   0.207   0.207   0.210   0.195   0.196   0.202   0.208   0.207   0.205   0.214   0.211   0.220   0.216   0.214   0.203   0.208   0.205   0.199   0.191   0.187   0.183   0.180   0.168   0.174   0.181   0.172   0.177   0.178   0.187   0.197
    47.50    0.198   0.215   0.236   0.227   0.219   0.206   0.205   0.192   0.200   0.200   0.207   0.207   0.207   0.211   0.213   0.217   0.214   0.209   0.211   0.196   0.196   0.201   0.193   0.189   0.192   0.200   0.185   0.171   0.184   0.183   0.193   0.188   0.184   0.187   0.204
    42.85    0.217   0.208   0.224   0.222   0.205   0.211   0.213   0.203   0.211   0.216   0.212   0.207   0.207   0.205   0.210   0.206   0.197   0.185   0.198   0.191   0.201   0.198   0.200   0.189   0.191   0.190   0.188   0.178   0.180   0.186   0.187   0.192   0.190   0.191   0.193
    38.20    0.222   0.216   0.215   0.220   0.206   0.211   0.209   0.216   0.211   0.199   0.201   0.210   0.207   0.200   0.210   0.203   0.206   0.199   0.198   0.192   0.197   0.201   0.201   0.194   0.195   0.186   0.178   0.180   0.184   0.182   0.184   0.198   0.198   0.208   0.202
    33.55    0.213   0.203   0.211   0.206   0.210   0.215   0.225   0.222   0.212   0.200   0.189   0.209   0.215   0.202   0.196   0.202   0.211   0.209   0.200   0.205   0.195   0.208   0.197   0.190   0.189   0.181   0.186   0.189   0.186   0.192   0.188   0.199   0.197   0.201   0.210
    28.90    0.209   0.209   0.207   0.208   0.214   0.205   0.214   0.223   0.205   0.209   0.213   0.209   0.221   0.208   0.208   0.215   0.206   0.213   0.211   0.192   0.201   0.201   0.186   0.188   0.195   0.201   0.200   0.198   0.199   0.204   0.192   0.189   0.205   0.206   0.208
    24.25    0.205   0.203   0.198   0.210   0.202   0.209   0.208   0.208   0.209   0.215   0.211   0.214   0.217   0.208   0.207   0.209   0.210   0.200   0.209   0.194   0.196   0.198   0.190   0.190   0.204   0.202   0.193   0.203   0.206   0.204   0.193   0.202   0.198   0.215   0.222
    19.60    0.207   0.211   0.204   0.209   0.207   0.210   0.208   0.206   0.215   0.209   0.205   0.205   0.217   0.202   0.205   0.212   0.201   0.197   0.210   0.205   0.203   0.197   0.201   0.200   0.199   0.194   0.202   0.209   0.208   0.205   0.204   0.206   0.216   0.223   0.232
    14.95    0.210   0.217   0.209   0.213   0.216   0.216   0.216   0.221   0.210   0.214   0.192   0.189   0.201   0.194   0.205   0.215   0.215   0.208   0.213   0.199   0.193   0.203   0.200   0.188   0.197   0.195   0.191   0.205   0.213   0.214   0.226   0.230   0.235   0.239   0.248
    10.30    0.210   0.217   0.217   0.213   0.218   0.222   0.223   0.213   0.208   0.207   0.195   0.194   0.195   0.211   0.205   0.209   0.211   0.209   0.201   0.198   0.206   0.201   0.195   0.192   0.198   0.198   0.207   0.225   0.222   0.220   0.223   0.221   0.248   0.247   0.264
     5.65    0.207   0.214   0.220   0.222   0.217   0.228   0.220   0.213   0.208   0.209   0.214   0.200   0.206   0.205   0.221   0.215   0.201   0.198   0.205   0.199   0.201   0.201   0.195   0.189   0.202   0.206   0.206   0.219   0.222   0.223   0.231   0.226   0.237   0.243   0.245
     1.00    0.206   0.222   0.231   0.228   0.234   0.233   0.221   0.222   0.210   0.215   0.216   0.211   0.212   0.202   0.208   0.215   0.199   0.190   0.205   0.204   0.200   0.194   0.200   0.199   0.209   0.206   0.220   0.222   0.225   0.222   0.221   0.230   0.226   0.236   0.236

   Height   Standard deviation at grid points for the w component:
   168.40    0.121   0.115   0.115   0.111   0.109   0.108   0.107   0.110   0.112   0.116   0.115   0.117   0.115   0.116   0.118   0.120   0.118   0.122   0.125   0.119   0.115   0.119   0.116   0.119   0.114   0.113   0.113   0.111   0.113   0.113   0.113   0.114   0.114   0.107   0.110
   163.75    0.111   0.115   0.117   0.111   0.111   0.112   0.111   0.116   0.116   0.113   0.112   0.115   0.114   0.119   0.121   0.122   0.121   0.125   0.124   0.123   0.122   0.119   0.117   0.116   0.116   0.113   0.113   0.117   0.112   0.112   0.112   0.110   0.112   0.117   0.110
   159.10    0.107   0.111   0.113   0.112   0.108   0.110   0.114   0.119   0.118   0.115   0.112   0.111   0.114   0.119   0.119   0.123   0.121   0.122   0.121   0.121   0.118   0.116   0.116   0.115   0.116   0.118   0.117   0.115   0.115   0.114   0.110   0.115   0.113   0.115   0.114
   154.45    0.112   0.112   0.115   0.109   0.109   0.111   0.116   0.117   0.116   0.118   0.115   0.117   0.113   0.117   0.120   0.124   0.121   0.122   0.122   0.121   0.120   0.117   0.115   0.115   0.112   0.112   0.114   0.111   0.113   0.111   0.114   0.115   0.114   0.111   0.113
   149.80    0.110   0.110   0.112   0.112   0.112   0.113   0.115   0.113   0.118   0.115   0.116   0.115   0.116   0.112   0.120   0.120   0.123   0.121   0.121   0.117   0.119   0.119   0.113   0.116   0.113   0.117   0.114   0.113   0.110   0.112   0.113   0.116   0.113   0.113   0.108
   145.15    0.111   0.113   0.113   0.111   0.113   0.114   0.112   0.113   0.118   0.116   0.114   0.117   0.116   0.115   0.120   0.123   0.121   0.125   0.119   0.123   0.112   0.116   0.116   0.113   0.117   0.114   0.116   0.110   0.111   0.113   0.117   0.117   0.115   0.116   0.118
   140.50    0.114   0.113   0.115   0.117   0.117   0.112   0.109   0.112   0.113   0.114   0.112   0.113   0.116   0.116   0.117   0.121   0.119   0.121   0.119   0.117   0.115   0.114   0.113   0.112   0.118   0.118   0.112   0.114   0.112   0.109   0.112   0.109   0.115   0.115   0.117
   135.85    0.113   0.116   0.113   0.116   0.112   0.109   0.109   0.109   0.111   0.110   0.113   0.113   0.115   0.111   0.116   0.118   0.123   0.117   0.120   0.118   0.114   0.112   0.111   0.115   0.117   0.115   0.116   0.115   0.119   0.114   0.110   0.111   0.113   0.116   0.116
   131.20    0.116   0.118   0.117   0.115   0.112   0.109   0.107   0.107   0.110   0.113   0.112   0.117   0.115   0.113   0.113   0.115   0.120   0.117   0.118   0.117   0.115   0.112   0.112   0.117   0.119   0.117   0.119   0.119   0.125   0.121   0.119   0.115   0.116   0.118   0.121
   126.55    0.117   0.116   0.115   0.114   0.111   0.110   0.105   0.106   0.108   0.111   0.114   0.114   0.116   0.117   0.114   0.115   0.116   0.116   0.114   0.113   0.116   0.117   0.116   0.118   0.117   0.120   0.122   0.124   0.121   0.118   0.122   0.117   0.120   0.123   0.116
   121.90    0.120   0.113   0.113   0.110   0.112   0.110   0.109   0.108   0.111   0.113   0.111   0.113   0.113   0.113   0.114   0.115   0.115   0.112   0.112   0.114   0.115   0.117   0.115   0.120   0.121   0.119   0.120   0.119   0.120   0.116   0.117   0.117   0.120   0.117   0.117
   117.25    0.117   0.115   0.109   0.110   0.114   0.115   0.111   0.111   0.109   0.114   0.115   0.111   0.108   0.112   0.111   0.115   0.114   0.120   0.114   0.116   0.114   0.114   0.118   0.120   0.122   0.121   0.117   0.122   0.120   0.121   0.116   0.115   0.115   0.118   0.118
   112.60    0.116   0.116   0.114   0.112   0.114   0.114   0.116   0.116   0.118   0.117   0.112   0.109   0.110   0.111   0.115   0.114   0.115   0.115   0.115   0.114   0.114   0.116   0.114   0.117   0.117   0.120   0.115   0.125   0.121   0.119   0.115   0.115   0.114   0.116   0.121
   107.95    0.113   0.115   0.112   0.116   0.114   0.116   0.120   0.119   0.118   0.115   0.112   0.109   0.113   0.117   0.114   0.115   0.116   0.115   0.112   0.110   0.113   0.110   0.114   0.110   0.113   0.111   0.117   0.119   0.122   0.121   0.115   0.118   0.115   0.120   0.119
   103.30    0.111   0.111   0.114   0.116   0.115   0.116   0.122   0.121   0.119   0.113   0.111   0.111   0.111   0.112   0.113   0.112   0.112   0.116   0.114   0.113   0.115   0.114   0.113   0.108   0.110   0.116   0.122   0.121   0.117   0.117   0.115   0.119   0.117   0.116   0.116
    98.65    0.112   0.115   0.113   0.115   0.117   0.115   0.119   0.121   0.120   0.112   0.113   0.110   0.109   0.116   0.114   0.113   0.112   0.116   0.118   0.119   0.119   0.113   0.114   0.114   0.116   0.121   0.123   0.118   0.114   0.116   0.114   0.115   0.120   0.119   0.114
    94.00    0.112   0.115   0.120   0.118   0.115   0.114   0.118   0.118   0.115   0.114   0.115   0.111   0.113   0.115   0.113   0.114   0.115   0.115   0.119   0.119   0.117   0.115   0.115   0.114   0.118   0.121   0.121   0.120   0.115   0.114   0.113   0.113   0.114   0.115   0.112
    89.35    0.113   0.113   0.117   0.123   0.119   0.111   0.114   0.113   0.116   0.116   0.112   0.105   0.113   0.116   0.116   0.115   0.121   0.117   0.119   0.118   0.119   0.118   0.112   0.115   0.117   0.123   0.118   0.115   0.117   0.119   0.118   0.116   0.113   0.114   0.112
    84.70    0.112   0.111   0.115   0.121   0.119   0.115   0.114   0.115   0.116   0.116   0.112   0.112   0.113   0.115   0.117   0.114   0.118   0.115   0.115   0.120   0.119   0.116   0.114   0.119   0.120   0.117   0.116   0.117   0.120   0.118   0.112   0.112   0.110   0.114   0.118
    80.05    0.111   0.114   0.115   0.118   0.121   0.117   0.114   0.114   0.114   0.116   0.111   0.112   0.112   0.112   0.114   0.117   0.114   0.115   0.115   0.119   0.120   0.115   0.119   0.121   0.116   0.114   0.117   0.117   0.117   0.118   0.112   0.111   0.113   0.113   0.113
    75.40    0.116   0.114   0.114   0.116   0.117   0.117   0.118   0.113   0.109   0.110   0.107   0.110   0.110   0.113   0.115   0.116   0.113   0.116   0.114   0.116   0.118   0.122   0.119   0.116   0.114   0.116   0.118   0.116   0.118   0.118   0.113   0.116   0.115   0.114   0.112
    70.75    0.114   0.113   0.114   0.116   0.118   0.117   0.115   0.110   0.109   0.109   0.106   0.110   0.110   0.114   0.113   0.113   0.112   0.114   0.116   0.113   0.116   0.117   0.118   0.122   0.120   0.118   0.115   0.116   0.120   0.120   0.119   0.119   0.114   0.112   0.112
    66.10    0.116   0.120   0.114   0.115   0.118   0.114   0.113   0.111   0.109   0.113   0.108   0.106   0.111   0.112   0.113   0.113   0.117   0.119   0.113   0.118   0.114   0.118   0.115   0.121   0.121   0.119   0.114   0.117   0.116   0.115   0.119   0.116   0.120   0.114   0.115
    61.45    0.118   0.119   0.113   0.117   0.118   0.118   0.115   0.113   0.113   0.114   0.114   0.110   0.113   0.117   0.111   0.111   0.115   0.116   0.116   0.115   0.115   0.115   0.115   0.119   0.116   0.113   0.118   0.112   0.114   0.115   0.114   0.119   0.119   0.115   0.116
    56.80    0.118   0.116   0.116   0.118   0.117   0.118   0.118   0.117   0.115   0.111   0.113   0.114   0.114   0.114   0.111   0.116   0.119   0.117   0.115   0.112   0.114   0.116   0.114   0.116   0.118   0.114   0.115   0.115   0.117   0.114   0.116   0.109   0.116   0.115   0.113
    52.15    0.116   0.115   0.114   0.115   0.114   0.116   0.116   0.119   0.117   0.114   0.114   0.118   0.111   0.116   0.121   0.118   0.120   0.118   0.114   0.115   0.113   0.115   0.118   0.117   0.119   0.118   0.115   0.117   0.116   0.112   0.113   0.113   0.113   0.115   0.116
    47.50    0.113   0.115   0.112   0.116   0.118   0.114   0.117   0.117   0.118   0.116   0.119   0.112   0.117   0.119   0.122   0.119   0.116   0.118   0.118   0.116   0.116   0.111   0.117   0.115   0.116   0.115   0.114   0.116   0.116   0.114   0.118   0.118   0.115   0.114   0.118
    42.85    0.112   0.114   0.119   0.122   0.119   0.113   0.116   0.117   0.115   0.118   0.117   0.117   0.113   0.119   0.119   0.121   0.116   0.119   0.119   0.116   0.114   0.113   0.115   0.117   0.115   0.114   0.115   0.116   0.115   0.116   0.117   0.115   0.117   0.115   0.118
    38.20    0.117   0.114   0.115   0.116   0.113   0.116   0.117   0.119   0.116   0.119   0.119   0.115   0.116   0.119   0.122   0.122   0.119   0.118   0.121   0.115   0.115   0.116   0.117   0.114   0.114   0.114   0.116   0.116   0.117   0.117   0.113   0.119   0.118   0.120   0.125
    33.55    0.115   0.113   0.115   0.116   0.118   0.117   0.112   0.114   0.119   0.117   0.119   0.121   0.120   0.119   0.117   0.117   0.115   0.115   0.118   0.114   0.113   0.114   0.117   0.115   0.116   0.116   0.115   0.115   0.116   0.113   0.118   0.121   0.121   0.118   0.125
    28.90    0.120   0.115   0.115   0.116   0.115   0.114   0.112   0.117   0.119   0.119   0.116   0.119   0.116   0.120   0.117   0.116   0.115   0.112   0.116   0.118   0.115   0.114   0.116   0.118   0.120   0.117   0.117   0.114   0.112   0.113   0.118   0.119   0.122   0.122   0.124
    24.25    0.117   0.117   0.114   0.117   0.115   0.114   0.120   0.120   0.117   0.122   0.118   0.120   0.116   0.117   0.117   0.117   0.115   0.115   0.114   0.116   0.113   0.115   0.118   0.118   0.116   0.120   0.113   0.116   0.115   0.115   0.116   0.115   0.123   0.119   0.120
    19.60    0.118   0.118   0.114   0.114   0.115   0.115   0.122   0.112   0.118   0.119   0.121   0.118   0.120   0.121   0.121   0.120   0.121   0.118   0.115   0.113   0.115   0.115   0.117   0.113   0.115   0.115   0.111   0.115   0.116   0.117   0.120   0.121   0.121   0.119   0.123
    14.95    0.119   0.116   0.112   0.114   0.113   0.113   0.116   0.116   0.114   0.116   0.119   0.119   0.118   0.123   0.123   0.123   0.118   0.116   0.119   0.114   0.117   0.118   0.117   0.113   0.116   0.115   0.115   0.113   0.116   0.121   0.121   0.120   0.117   0.122   0.121
    10.30    0.114   0.115   0.117   0.114   0.115   0.118   0.115   0.115   0.116   0.117   0.116   0.115   0.115   0.115   0.119   0.122   0.118   0.117   0.116   0.111   0.115   0.118   0.118   0.119   0.116   0.117   0.121   0.119   0.115   0.119   0.120   0.116   0.114   0.120   0.120
     5.65    0.116   0.116   0.119   0.117   0.116   0.116   0.116   0.115   0.114   0.115   0.111   0.113   0.115   0.117   0.120   0.113   0.113   0.113   0.117   0.116   0.115   0.114   0.113   0.120   0.117   0.119   0.122   0.116   0.117   0.115   0.116   0.116   0.115   0.114   0.118
     1.00    0.115   0.120   0.122   0.118   0.115   0.116   0.116   0.117   0.114   0.114   0.115   0.119   0.117   0.116   0.117   0.116   0.114   0.115   0.115   0.114   0.115   0.113   0.114   0.119   0.117   0.120   0.120   0.113   0.117   0.118   0.117   0.117   0.113   0.116   0.117

   Mean standard deviation across all grid points:
      u component:    0.238 m/s
      v component:    0.195 m/s
      w component:    0.116 m/s


U-component (X) statistics from the interpolated hub point:

   Mean =   9.9913 m/s
   TI   =   2.1156 %


Processing complete.  6225.7 CPU seconds used.
