
This summary file was generated by TurbSim (from OpenFAST-v3.5.3) on 20-Apr-2025 at 09:16:35.


Runtime Options:

 376932526  Random seed #1
    RANLUX  Type of random number generator
         F  Output binary HH turbulence parameters?
         F  Output formatted turbulence parameters?
         F  Output AeroDyn HH files?
         T  Output AeroDyn FF files?
         F  Output BLADED FF files?
         F  Output tower data?
         F  Output HAWC FF files?
         F  Output formatted FF files?
         T  Output coherent turbulence time step file?
 0 -  NONE  IEC turbulence models scaled to exact specified standard deviation


Turbine/Model Specifications:

        37  Vertical grid-point matrix dimension
        35  Horizontal grid-point matrix dimension
     0.250  Time step [seconds]
   900.000  Analysis time [seconds]
   900.000  Usable output time [seconds]
    89.350  Hub height [m]
   167.400  Grid height [m]
   158.100  Grid width [m]
     0.000  Vertical flow angle [degrees]
     0.000  Horizontal flow angle [degrees]


Meteorological Boundary Conditions:

    TIMESR  User-input time series spectral model
       N/A  IEC standard
       N/A  IEC turbulence characteristic
       N/A  IEC turbulence type
       N/A  IEC Extreme Turbulence Model (ETM) "c" parameter [m/s]
       PL   Wind profile type
    90.000  Reference height [m]
    10.000  Reference wind speed [m/s]
       N/A  Jet height [m]
     0.120  Power law exponent
     0.030  Surface roughness length [m]


Non-IEC Meteorological Boundary Conditions:

    45.000  Site latitude [degrees]
     0.050  Gradient Richardson number
     0.480  Friction or shear velocity [m/s]
       N/A  Mixing layer depth [m]
       N/A  Mean hub u'w' Reynolds stress
       N/A  Mean hub u'v' Reynolds stress
       N/A  Mean hub v'w' Reynolds stress


Spatial Coherence Models:

       IEC  u-component coherence model
       IEC  v-component coherence model
       IEC  w-component coherence model
(   12.000, 0.353E-03)  u-component coherence parameters
(   12.000, 0.353E-03)  v-component coherence parameters
(   12.000, 0.353E-03)  w-component coherence parameters
       N/A  Coherence exponent


Coherent Turbulence Scaling Parameters:

.\EventData
            Name of the path containing the coherent turbulence data files
       les  Type of coherent turbulence data files
     1.000  Disturbance scale (ratio of wave height to rotor diameter)
     0.500  Fractional location of tower centerline from right
     0.500  Fractional location of hub height from the bottom of the dataset
    30.000  Minimum start time for coherent structures [seconds]


Profiles from User-Defined Time-Series Input:

  Height   Wind Speed   Horizontal Angle   Vertical Angle
   (m)        (m/s)          (deg)              (deg)    
  ------   ----------   ----------------   --------------
   94.00      10.00          -0.63               -0.00


You have requested that the following file(s) be generated:

   /kfs3/scratch/agupta/Projects/RL_Incubator/FinalRuns_Veer/Seed4/./FFSim_Seed4/Cond00_v10.0_PL0.12_TI5.0/Case2_wdirp04/Seed_6/TurbSim/HighT7.bts (AeroDyn/TurbSim full-field wind file)


Turbulence Simulation Scaling Parameter Summary:

   Turbulence model used                            =  User-input time series
   Gradient Richardson number                       =    0.050
   Monin-Obukhov (M-O) z/L parameter                =    0.067
   Monin-Obukhov (M-O) length scale                 = 1340.250 m
   Mean wind speed at hub height                    =    9.991 m/s

   Wind profile type                                =  Power law
   Power law exponent                               =    0.120
   Mean shear across rotor disk                     =    0.019 (m/s)/m
   Assumed rotor diameter                           =  158.100 m
   Surface roughness length                         =    0.030 m

   Nyquist frequency of turbulent wind field        =    2.000 Hz

   Number of time steps in the FFT                  =     3600
   Number of time steps output                      =     3600
   Number of points simulated                       =     1296


Mean Flow Angles:

   Vertical   =   0.0 degrees
   Horizontal =   0.0 degrees

Mean Wind Speed Profile:

   Height    Wind Speed   Horizontal Angle  Vertical Angle  U-comp (X)   V-comp (Y)   W-comp (Z)
     (m)        (m/s)         (degrees)       (degrees)       (m/s)        (m/s)        (m/s)   
   ------    ----------   ----------------  --------------  ----------   ----------   ----------
    168.4       10.78            0.00            0.00         10.78         0.00         0.00
    163.7       10.74            0.00            0.00         10.74         0.00         0.00
    159.1       10.71            0.00            0.00         10.71         0.00         0.00
    154.4       10.67            0.00            0.00         10.67         0.00         0.00
    149.8       10.63            0.00            0.00         10.63         0.00         0.00
    145.1       10.59            0.00            0.00         10.59         0.00         0.00
    140.5       10.55            0.00            0.00         10.55         0.00         0.00
    135.8       10.51            0.00            0.00         10.51         0.00         0.00
    131.2       10.46            0.00            0.00         10.46         0.00         0.00
    126.5       10.42            0.00            0.00         10.42         0.00         0.00
    121.9       10.37            0.00            0.00         10.37         0.00         0.00
    117.2       10.32            0.00            0.00         10.32         0.00         0.00
    112.6       10.27            0.00            0.00         10.27         0.00         0.00
    107.9       10.22            0.00            0.00         10.22         0.00         0.00
    103.3       10.17            0.00            0.00         10.17         0.00         0.00
     98.6       10.11            0.00            0.00         10.11         0.00         0.00
     94.0       10.05            0.00            0.00         10.05         0.00         0.00
     89.3        9.99            0.00            0.00          9.99         0.00         0.00
     84.7        9.93            0.00            0.00          9.93         0.00         0.00
     80.0        9.86            0.00            0.00          9.86         0.00         0.00
     75.4        9.79            0.00            0.00          9.79         0.00         0.00
     70.7        9.72            0.00            0.00          9.72         0.00         0.00
     66.1        9.64            0.00            0.00          9.64         0.00         0.00
     61.4        9.55            0.00            0.00          9.55         0.00         0.00
     56.8        9.46            0.00            0.00          9.46         0.00         0.00
     52.1        9.37            0.00            0.00          9.37         0.00         0.00
     47.5        9.26            0.00            0.00          9.26         0.00         0.00
     42.8        9.15            0.00            0.00          9.15         0.00         0.00
     38.2        9.02            0.00            0.00          9.02         0.00         0.00
     33.5        8.88            0.00            0.00          8.88         0.00         0.00
     28.9        8.73            0.00            0.00          8.73         0.00         0.00
     24.2        8.54            0.00            0.00          8.54         0.00         0.00
     19.6        8.33            0.00            0.00          8.33         0.00         0.00
     14.9        8.06            0.00            0.00          8.06         0.00         0.00
     10.3        7.71            0.00            0.00          7.71         0.00         0.00
      5.6        7.17            0.00            0.00          7.17         0.00         0.00
      1.0        5.83            0.00            0.00          5.83         0.00         0.00


Harvested Random Seeds after Generation of the Random Numbers:

     65026800 K 1
            0 K 2


Hub-Height Simulated Turbulence Statistical Summary:

   Type of Wind        Min (m/s)   Mean (m/s)    Max (m/s)  Sigma (m/s)       TI (%)
   ----------------    ---------   ----------    ---------  -----------       ------
   Longitudinal (u)         8.49         9.99        11.47        0.489        4.892
   Lateral (v)             -1.40         0.00         1.19        0.407        4.069
   Vertical (w)            -0.78         0.00         0.78        0.230        2.303
   U component              8.49         9.99        11.47        0.489        4.892
   V component             -1.40         0.00         1.19        0.407        4.069
   W component             -0.78         0.00         0.78        0.230        2.303
   Horizontal (U&V)         8.49        10.00        11.48        0.489        4.894
   Total                    8.49        10.00        11.48        0.490        4.894

                       Min Reynolds     Mean Reynolds    Max Reynolds    Correlation
   Product             Stress (m/s)^2   Stress (m/s)^2   Stress (m/s)^2  Coefficient
   ----------------    --------------   --------------   --------------  -----------
   u'w'                     -0.658             0.006             0.830         0.057
   u'v'                     -1.213            -0.021             0.944        -0.106
   v'w'                     -0.605             0.002             0.601         0.026


   Friction Velocity (Ustar)  =      0.080 m/s
   Maximum Instantaneous TKE  =      1.411 (m/s)^2
   Maximum Instantaneous CTKE =      0.746 (m/s)^2


Grid Point Variance Summary:

   Y-coord  -79.05  -74.40  -69.75  -65.10  -60.45  -55.80  -51.15  -46.50  -41.85  -37.20  -32.55  -27.90  -23.25  -18.60  -13.95   -9.30   -4.65    0.00    4.65    9.30   13.95   18.60   23.25   27.90   32.55   37.20   41.85   46.50   51.15   55.80   60.45   65.10   69.75   74.40   79.05

   Height   Standard deviation at grid points for the u component:
   168.40    0.442   0.448   0.443   0.413   0.422   0.417   0.424   0.413   0.423   0.410   0.395   0.377   0.388   0.399   0.397   0.358   0.391   0.414   0.412   0.425   0.430   0.412   0.424   0.475   0.474   0.468   0.465   0.473   0.498   0.488   0.455   0.424   0.435   0.437   0.442
   163.75    0.459   0.445   0.469   0.445   0.444   0.449   0.445   0.425   0.401   0.390   0.395   0.382   0.415   0.417   0.391   0.385   0.396   0.412   0.414   0.402   0.416   0.449   0.453   0.480   0.487   0.468   0.503   0.498   0.511   0.484   0.463   0.449   0.422   0.427   0.425
   159.10    0.476   0.478   0.474   0.430   0.461   0.475   0.449   0.447   0.435   0.413   0.403   0.395   0.420   0.412   0.391   0.393   0.406   0.432   0.421   0.378   0.421   0.466   0.477   0.467   0.481   0.477   0.504   0.526   0.497   0.459   0.459   0.470   0.450   0.452   0.454
   154.45    0.481   0.462   0.424   0.417   0.446   0.447   0.444   0.412   0.426   0.382   0.372   0.380   0.384   0.401   0.397   0.413   0.410   0.425   0.409   0.417   0.433   0.439   0.469   0.462   0.471   0.491   0.469   0.524   0.500   0.481   0.442   0.436   0.460   0.448   0.459
   149.80    0.456   0.443   0.424   0.419   0.430   0.434   0.440   0.405   0.411   0.399   0.415   0.413   0.419   0.414   0.428   0.403   0.401   0.383   0.433   0.413   0.451   0.469   0.462   0.467   0.477   0.499   0.474   0.496   0.522   0.479   0.458   0.439   0.479   0.454   0.423
   145.15    0.436   0.425   0.437   0.437   0.438   0.456   0.456   0.432   0.405   0.428   0.459   0.478   0.449   0.462   0.442   0.455   0.418   0.403   0.458   0.455   0.470   0.450   0.447   0.451   0.468   0.497   0.484   0.506   0.495   0.481   0.481   0.467   0.463   0.480   0.453
   140.50    0.412   0.400   0.422   0.425   0.441   0.451   0.460   0.436   0.438   0.456   0.447   0.492   0.468   0.459   0.490   0.478   0.452   0.450   0.486   0.504   0.466   0.453   0.441   0.435   0.487   0.503   0.484   0.479   0.452   0.465   0.490   0.480   0.484   0.458   0.450
   135.85    0.423   0.433   0.437   0.415   0.458   0.476   0.469   0.421   0.434   0.417   0.471   0.478   0.468   0.486   0.500   0.488   0.490   0.481   0.490   0.531   0.509   0.485   0.461   0.480   0.495   0.483   0.446   0.455   0.470   0.473   0.490   0.496   0.492   0.476   0.455
   131.20    0.459   0.476   0.452   0.442   0.432   0.443   0.444   0.437   0.433   0.445   0.443   0.477   0.499   0.485   0.472   0.479   0.460   0.482   0.487   0.509   0.516   0.511   0.506   0.494   0.493   0.462   0.452   0.438   0.434   0.488   0.492   0.499   0.523   0.550   0.505
   126.55    0.474   0.462   0.446   0.429   0.443   0.440   0.398   0.419   0.424   0.422   0.455   0.483   0.477   0.476   0.455   0.463   0.460   0.479   0.484   0.486   0.475   0.508   0.514   0.518   0.502   0.463   0.439   0.443   0.450   0.474   0.495   0.500   0.522   0.539   0.513
   121.90    0.492   0.465   0.443   0.448   0.447   0.453   0.436   0.437   0.415   0.421   0.459   0.470   0.493   0.455   0.453   0.465   0.500   0.490   0.488   0.493   0.501   0.487   0.505   0.527   0.506   0.480   0.444   0.434   0.452   0.492   0.512   0.521   0.487   0.499   0.506
   117.25    0.459   0.461   0.452   0.476   0.465   0.476   0.464   0.497   0.465   0.427   0.456   0.482   0.475   0.463   0.449   0.486   0.505   0.483   0.467   0.482   0.476   0.499   0.476   0.527   0.489   0.496   0.444   0.470   0.476   0.493   0.514   0.524   0.506   0.534   0.502
   112.60    0.441   0.424   0.463   0.467   0.484   0.498   0.495   0.504   0.467   0.415   0.452   0.420   0.442   0.430   0.472   0.486   0.509   0.484   0.468   0.452   0.456   0.447   0.481   0.510   0.510   0.519   0.458   0.451   0.438   0.500   0.496   0.510   0.521   0.514   0.494
   107.95    0.446   0.413   0.451   0.460   0.472   0.483   0.492   0.482   0.449   0.442   0.438   0.419   0.427   0.453   0.477   0.488   0.506   0.474   0.457   0.450   0.459   0.451   0.464   0.487   0.489   0.512   0.502   0.437   0.454   0.486   0.467   0.485   0.478   0.502   0.463
   103.30    0.438   0.442   0.441   0.428   0.455   0.495   0.475   0.459   0.430   0.415   0.421   0.433   0.452   0.479   0.468   0.504   0.501   0.474   0.447   0.468   0.477   0.472   0.452   0.475   0.488   0.483   0.475   0.456   0.474   0.494   0.452   0.443   0.468   0.486   0.480
    98.65    0.457   0.430   0.439   0.454   0.508   0.506   0.460   0.469   0.456   0.440   0.443   0.477   0.514   0.504   0.497   0.518   0.519   0.490   0.480   0.469   0.461   0.481   0.466   0.487   0.479   0.460   0.451   0.455   0.461   0.480   0.455   0.469   0.437   0.433   0.462
    94.00    0.436   0.417   0.456   0.471   0.513   0.475   0.454   0.432   0.470   0.461   0.476   0.506   0.496   0.461   0.496   0.515   0.526   0.482   0.463   0.422   0.444   0.439   0.470   0.466   0.490   0.465   0.460   0.469   0.452   0.443   0.476   0.446   0.412   0.445   0.423
    89.35    0.428   0.423   0.430   0.464   0.467   0.453   0.458   0.481   0.464   0.474   0.482   0.471   0.454   0.457   0.482   0.498   0.496   0.489   0.467   0.424   0.440   0.450   0.489   0.500   0.499   0.492   0.471   0.480   0.447   0.484   0.483   0.471   0.427   0.433   0.440
    84.70    0.420   0.396   0.413   0.426   0.432   0.448   0.449   0.443   0.431   0.429   0.431   0.441   0.427   0.440   0.447   0.464   0.476   0.466   0.446   0.433   0.462   0.467   0.480   0.483   0.484   0.487   0.470   0.484   0.457   0.467   0.474   0.459   0.464   0.416   0.416
    80.05    0.400   0.426   0.416   0.451   0.448   0.459   0.435   0.410   0.408   0.427   0.393   0.406   0.399   0.408   0.425   0.455   0.484   0.494   0.437   0.426   0.437   0.434   0.445   0.470   0.453   0.459   0.464   0.479   0.470   0.467   0.487   0.456   0.429   0.401   0.398
    75.40    0.415   0.425   0.450   0.461   0.453   0.427   0.440   0.416   0.411   0.412   0.390   0.399   0.433   0.413   0.433   0.459   0.460   0.466   0.429   0.441   0.422   0.461   0.456   0.460   0.464   0.474   0.477   0.475   0.455   0.481   0.483   0.465   0.407   0.385   0.378
    70.75    0.471   0.471   0.451   0.428   0.432   0.431   0.446   0.431   0.414   0.410   0.414   0.406   0.435   0.419   0.429   0.419   0.458   0.454   0.427   0.430   0.438   0.454   0.488   0.459   0.451   0.500   0.518   0.472   0.447   0.474   0.497   0.459   0.436   0.407   0.404
    66.10    0.472   0.487   0.465   0.438   0.443   0.436   0.449   0.435   0.408   0.382   0.393   0.418   0.432   0.415   0.423   0.431   0.467   0.466   0.473   0.429   0.428   0.469   0.486   0.480   0.463   0.479   0.510   0.500   0.458   0.503   0.517   0.482   0.438   0.429   0.435
    61.45    0.462   0.478   0.492   0.475   0.463   0.448   0.449   0.426   0.407   0.387   0.425   0.410   0.431   0.421   0.434   0.431   0.440   0.450   0.469   0.462   0.460   0.490   0.496   0.488   0.473   0.477   0.495   0.488   0.472   0.464   0.495   0.493   0.481   0.469   0.473
    56.80    0.486   0.488   0.502   0.481   0.480   0.429   0.426   0.440   0.434   0.434   0.422   0.410   0.414   0.409   0.456   0.436   0.422   0.440   0.442   0.447   0.468   0.486   0.509   0.521   0.505   0.479   0.501   0.478   0.486   0.461   0.491   0.504   0.473   0.471   0.492
    52.15    0.481   0.502   0.470   0.485   0.495   0.457   0.461   0.453   0.448   0.438   0.443   0.421   0.397   0.418   0.427   0.411   0.425   0.436   0.440   0.419   0.435   0.460   0.501   0.493   0.509   0.495   0.487   0.477   0.487   0.475   0.495   0.504   0.499   0.472   0.469
    47.50    0.512   0.489   0.470   0.480   0.477   0.474   0.472   0.477   0.433   0.435   0.439   0.420   0.413   0.425   0.430   0.408   0.437   0.460   0.460   0.457   0.471   0.475   0.477   0.495   0.489   0.470   0.462   0.482   0.474   0.452   0.499   0.505   0.485   0.490   0.476
    42.85    0.519   0.525   0.494   0.482   0.486   0.442   0.447   0.467   0.445   0.421   0.405   0.428   0.422   0.433   0.424   0.422   0.430   0.457   0.461   0.463   0.475   0.442   0.459   0.478   0.507   0.466   0.466   0.476   0.445   0.468   0.506   0.483   0.499   0.492   0.497
    38.20    0.535   0.525   0.539   0.479   0.442   0.459   0.473   0.450   0.437   0.394   0.410   0.411   0.419   0.429   0.420   0.414   0.440   0.455   0.456   0.426   0.452   0.456   0.471   0.498   0.501   0.516   0.480   0.470   0.484   0.487   0.484   0.467   0.469   0.489   0.499
    33.55    0.523   0.533   0.513   0.480   0.462   0.467   0.447   0.420   0.418   0.367   0.365   0.379   0.395   0.410   0.420   0.421   0.422   0.454   0.433   0.434   0.448   0.445   0.454   0.457   0.481   0.465   0.488   0.489   0.479   0.503   0.480   0.480   0.474   0.479   0.488
    28.90    0.507   0.486   0.458   0.458   0.468   0.452   0.434   0.412   0.393   0.400   0.382   0.391   0.416   0.421   0.443   0.428   0.437   0.414   0.428   0.424   0.442   0.463   0.458   0.464   0.427   0.465   0.472   0.475   0.501   0.498   0.491   0.460   0.458   0.486   0.458
    24.25    0.470   0.466   0.451   0.469   0.450   0.463   0.436   0.417   0.405   0.400   0.385   0.414   0.434   0.444   0.447   0.412   0.397   0.411   0.424   0.419   0.427   0.481   0.449   0.441   0.455   0.468   0.460   0.470   0.461   0.523   0.473   0.473   0.468   0.485   0.452
    19.60    0.492   0.483   0.477   0.434   0.446   0.443   0.419   0.398   0.391   0.431   0.416   0.448   0.427   0.457   0.437   0.425   0.428   0.445   0.421   0.409   0.432   0.446   0.452   0.457   0.474   0.459   0.457   0.480   0.468   0.503   0.501   0.487   0.489   0.509   0.504
    14.95    0.512   0.466   0.448   0.433   0.446   0.437   0.425   0.396   0.404   0.403   0.421   0.460   0.467   0.443   0.426   0.404   0.444   0.448   0.428   0.418   0.420   0.433   0.438   0.463   0.465   0.473   0.490   0.469   0.469   0.510   0.478   0.439   0.460   0.474   0.454
    10.30    0.503   0.427   0.438   0.451   0.441   0.413   0.394   0.410   0.396   0.381   0.395   0.451   0.454   0.445   0.463   0.432   0.449   0.451   0.435   0.427   0.434   0.443   0.446   0.451   0.456   0.472   0.451   0.476   0.466   0.495   0.455   0.450   0.444   0.453   0.418
     5.65    0.522   0.459   0.445   0.432   0.406   0.370   0.390   0.387   0.379   0.366   0.396   0.409   0.441   0.456   0.443   0.447   0.456   0.435   0.428   0.415   0.428   0.446   0.427   0.424   0.428   0.457   0.459   0.479   0.474   0.498   0.496   0.460   0.423   0.409   0.429
     1.00    0.519   0.486   0.455   0.444   0.397   0.391   0.408   0.409   0.386   0.366   0.384   0.394   0.412   0.421   0.426   0.439   0.432   0.436   0.462   0.424   0.442   0.487   0.449   0.450   0.441   0.447   0.445   0.456   0.464   0.458   0.480   0.458   0.429   0.409   0.412

   Height   Standard deviation at grid points for the v component:
   168.40    0.480   0.457   0.439   0.431   0.438   0.445   0.465   0.458   0.447   0.433   0.411   0.408   0.386   0.399   0.420   0.441   0.412   0.395   0.417   0.432   0.450   0.406   0.403   0.402   0.430   0.415   0.396   0.414   0.413   0.452   0.450   0.479   0.471   0.483   0.451
   163.75    0.487   0.472   0.426   0.431   0.440   0.439   0.461   0.450   0.451   0.432   0.413   0.413   0.394   0.447   0.450   0.427   0.388   0.383   0.391   0.433   0.442   0.411   0.417   0.417   0.406   0.427   0.415   0.425   0.412   0.413   0.443   0.468   0.461   0.449   0.445
   159.10    0.481   0.486   0.441   0.418   0.440   0.408   0.421   0.437   0.438   0.405   0.408   0.405   0.406   0.419   0.435   0.421   0.408   0.383   0.381   0.426   0.442   0.439   0.444   0.479   0.461   0.443   0.431   0.427   0.408   0.410   0.420   0.430   0.477   0.472   0.459
   154.45    0.454   0.466   0.430   0.472   0.468   0.417   0.428   0.427   0.408   0.408   0.381   0.388   0.418   0.432   0.417   0.412   0.426   0.382   0.367   0.414   0.432   0.438   0.421   0.445   0.474   0.491   0.448   0.441   0.427   0.443   0.406   0.403   0.440   0.424   0.431
   149.80    0.427   0.415   0.452   0.467   0.440   0.456   0.446   0.439   0.405   0.395   0.407   0.390   0.395   0.418   0.396   0.397   0.396   0.380   0.411   0.433   0.436   0.430   0.450   0.489   0.487   0.492   0.471   0.461   0.439   0.437   0.423   0.416   0.420   0.430   0.405
   145.15    0.444   0.442   0.451   0.445   0.414   0.420   0.416   0.427   0.410   0.385   0.381   0.387   0.397   0.394   0.387   0.379   0.389   0.398   0.392   0.422   0.401   0.430   0.459   0.459   0.448   0.454   0.463   0.450   0.460   0.453   0.429   0.419   0.425   0.401   0.401
   140.50    0.465   0.464   0.478   0.429   0.404   0.393   0.417   0.422   0.429   0.388   0.388   0.389   0.393   0.386   0.406   0.374   0.392   0.410   0.397   0.426   0.418   0.415   0.433   0.455   0.466   0.435   0.416   0.428   0.442   0.453   0.413   0.403   0.429   0.424   0.397
   135.85    0.454   0.482   0.455   0.422   0.419   0.410   0.395   0.420   0.406   0.399   0.386   0.383   0.410   0.389   0.395   0.393   0.415   0.419   0.378   0.415   0.425   0.464   0.456   0.451   0.453   0.449   0.425   0.432   0.440   0.451   0.455   0.416   0.425   0.441   0.426
   131.20    0.446   0.431   0.465   0.433   0.405   0.393   0.382   0.387   0.366   0.365   0.373   0.391   0.426   0.408   0.424   0.404   0.429   0.410   0.410   0.413   0.428   0.459   0.485   0.492   0.483   0.447   0.424   0.432   0.461   0.462   0.464   0.426   0.418   0.421   0.429
   126.55    0.444   0.459   0.451   0.444   0.406   0.399   0.384   0.345   0.356   0.376   0.394   0.390   0.408   0.438   0.401   0.397   0.396   0.422   0.432   0.418   0.442   0.468   0.475   0.505   0.487   0.471   0.463   0.489   0.460   0.455   0.451   0.425   0.428   0.405   0.383
   121.90    0.424   0.447   0.446   0.432   0.420   0.401   0.399   0.367   0.366   0.384   0.398   0.401   0.387   0.415   0.417   0.405   0.402   0.400   0.411   0.434   0.432   0.458   0.499   0.520   0.500   0.486   0.458   0.491   0.460   0.424   0.427   0.428   0.414   0.391   0.367
   117.25    0.439   0.443   0.445   0.403   0.423   0.408   0.411   0.409   0.393   0.374   0.405   0.420   0.431   0.436   0.439   0.409   0.426   0.408   0.433   0.442   0.429   0.456   0.481   0.508   0.540   0.513   0.487   0.472   0.477   0.448   0.412   0.412   0.385   0.378   0.385
   112.60    0.422   0.419   0.430   0.414   0.401   0.398   0.405   0.413   0.407   0.379   0.391   0.415   0.421   0.432   0.428   0.425   0.412   0.426   0.454   0.478   0.452   0.465   0.452   0.489   0.497   0.494   0.496   0.488   0.478   0.444   0.406   0.422   0.414   0.393   0.363
   107.95    0.458   0.443   0.432   0.441   0.404   0.408   0.400   0.393   0.392   0.372   0.376   0.425   0.431   0.441   0.438   0.415   0.413   0.420   0.457   0.460   0.476   0.459   0.464   0.467   0.479   0.493   0.500   0.510   0.489   0.455   0.436   0.428   0.425   0.392   0.385
   103.30    0.446   0.454   0.441   0.445   0.425   0.397   0.375   0.385   0.382   0.387   0.377   0.400   0.417   0.425   0.432   0.409   0.448   0.445   0.442   0.448   0.462   0.457   0.475   0.474   0.481   0.509   0.531   0.524   0.487   0.456   0.445   0.434   0.417   0.399   0.399
    98.65    0.428   0.432   0.419   0.459   0.404   0.416   0.406   0.385   0.396   0.372   0.378   0.392   0.411   0.417   0.412   0.423   0.438   0.417   0.441   0.420   0.431   0.437   0.444   0.444   0.484   0.505   0.499   0.494   0.485   0.457   0.428   0.436   0.404   0.382   0.384
    94.00    0.418   0.403   0.418   0.417   0.425   0.423   0.397   0.376   0.412   0.390   0.369   0.367   0.389   0.424   0.448   0.414   0.420   0.430   0.430   0.432   0.419   0.417   0.418   0.447   0.461   0.474   0.491   0.455   0.463   0.473   0.455   0.436   0.399   0.371   0.389
    89.35    0.442   0.421   0.393   0.405   0.413   0.409   0.393   0.395   0.386   0.394   0.367   0.360   0.389   0.432   0.435   0.432   0.441   0.407   0.394   0.406   0.404   0.395   0.410   0.447   0.463   0.477   0.483   0.465   0.448   0.462   0.455   0.441   0.416   0.379   0.380
    84.70    0.465   0.445   0.423   0.394   0.410   0.413   0.431   0.411   0.412   0.411   0.377   0.406   0.430   0.409   0.401   0.409   0.421   0.404   0.403   0.390   0.414   0.404   0.391   0.415   0.450   0.460   0.438   0.478   0.459   0.465   0.428   0.440   0.402   0.400   0.400
    80.05    0.458   0.452   0.425   0.417   0.396   0.426   0.413   0.430   0.449   0.461   0.433   0.421   0.419   0.413   0.394   0.384   0.409   0.372   0.375   0.388   0.397   0.414   0.407   0.423   0.418   0.434   0.447   0.448   0.437   0.426   0.423   0.429   0.415   0.415   0.404
    75.40    0.414   0.400   0.417   0.401   0.425   0.421   0.423   0.432   0.465   0.451   0.413   0.423   0.429   0.414   0.407   0.417   0.390   0.370   0.373   0.395   0.400   0.402   0.410   0.411   0.415   0.441   0.454   0.473   0.462   0.425   0.418   0.423   0.414   0.414   0.376
    70.75    0.413   0.384   0.394   0.400   0.423   0.418   0.428   0.421   0.430   0.412   0.406   0.426   0.420   0.418   0.400   0.399   0.384   0.379   0.386   0.389   0.392   0.396   0.397   0.397   0.412   0.429   0.456   0.481   0.468   0.446   0.426   0.406   0.370   0.389   0.371
    66.10    0.414   0.400   0.400   0.412   0.414   0.402   0.422   0.423   0.417   0.396   0.398   0.428   0.423   0.403   0.383   0.392   0.379   0.387   0.377   0.390   0.400   0.422   0.393   0.409   0.441   0.464   0.453   0.435   0.452   0.464   0.452   0.411   0.385   0.358   0.371
    61.45    0.421   0.403   0.379   0.383   0.409   0.418   0.417   0.382   0.396   0.399   0.378   0.400   0.402   0.381   0.378   0.393   0.398   0.369   0.372   0.398   0.420   0.442   0.424   0.405   0.440   0.459   0.436   0.457   0.434   0.444   0.460   0.412   0.374   0.356   0.362
    56.80    0.427   0.401   0.378   0.381   0.388   0.398   0.402   0.391   0.379   0.370   0.367   0.389   0.359   0.375   0.380   0.385   0.376   0.381   0.395   0.397   0.419   0.429   0.442   0.436   0.431   0.473   0.454   0.442   0.442   0.444   0.423   0.419   0.387   0.358   0.359
    52.15    0.423   0.403   0.378   0.393   0.398   0.403   0.371   0.366   0.384   0.368   0.379   0.392   0.374   0.368   0.384   0.388   0.384   0.395   0.399   0.423   0.423   0.429   0.442   0.429   0.457   0.467   0.479   0.466   0.456   0.460   0.443   0.411   0.395   0.370   0.379
    47.50    0.418   0.409   0.384   0.364   0.358   0.361   0.358   0.351   0.360   0.364   0.368   0.365   0.380   0.375   0.364   0.405   0.407   0.433   0.424   0.423   0.427   0.441   0.439   0.433   0.460   0.476   0.449   0.458   0.427   0.449   0.437   0.425   0.385   0.384   0.358
    42.85    0.396   0.393   0.375   0.361   0.352   0.343   0.360   0.361   0.354   0.381   0.395   0.377   0.392   0.383   0.383   0.397   0.437   0.442   0.419   0.430   0.432   0.429   0.428   0.421   0.452   0.470   0.475   0.442   0.428   0.420   0.407   0.378   0.389   0.384   0.364
    38.20    0.386   0.391   0.391   0.367   0.360   0.380   0.377   0.367   0.372   0.381   0.391   0.378   0.384   0.394   0.393   0.399   0.419   0.418   0.426   0.428   0.449   0.419   0.429   0.428   0.425   0.455   0.439   0.424   0.424   0.391   0.391   0.376   0.406   0.385   0.383
    33.55    0.383   0.383   0.368   0.399   0.386   0.395   0.387   0.382   0.365   0.376   0.385   0.380   0.367   0.380   0.392   0.375   0.390   0.425   0.424   0.436   0.420   0.433   0.413   0.397   0.393   0.413   0.435   0.442   0.405   0.383   0.378   0.389   0.392   0.391   0.383
    28.90    0.375   0.382   0.382   0.412   0.414   0.433   0.399   0.385   0.378   0.356   0.354   0.366   0.373   0.386   0.375   0.358   0.355   0.398   0.389   0.397   0.388   0.413   0.405   0.387   0.420   0.414   0.418   0.409   0.392   0.383   0.403   0.377   0.386   0.385   0.390
    24.25    0.395   0.377   0.400   0.407   0.420   0.431   0.407   0.391   0.391   0.373   0.358   0.365   0.370   0.395   0.384   0.375   0.371   0.383   0.357   0.358   0.396   0.406   0.395   0.407   0.411   0.409   0.401   0.400   0.393   0.397   0.390   0.392   0.377   0.382   0.383
    19.60    0.394   0.385   0.410   0.416   0.415   0.414   0.420   0.414   0.388   0.378   0.363   0.353   0.372   0.369   0.371   0.390   0.378   0.400   0.370   0.365   0.390   0.376   0.390   0.407   0.393   0.378   0.398   0.384   0.390   0.383   0.362   0.386   0.359   0.372   0.382
    14.95    0.395   0.384   0.374   0.399   0.395   0.419   0.413   0.393   0.409   0.395   0.368   0.364   0.352   0.380   0.381   0.388   0.388   0.375   0.384   0.396   0.371   0.388   0.384   0.391   0.413   0.394   0.369   0.399   0.376   0.366   0.363   0.377   0.356   0.368   0.386
    10.30    0.397   0.405   0.392   0.399   0.372   0.397   0.386   0.403   0.392   0.387   0.372   0.366   0.384   0.390   0.383   0.381   0.400   0.398   0.408   0.398   0.398   0.397   0.380   0.378   0.395   0.370   0.383   0.370   0.364   0.364   0.378   0.386   0.374   0.360   0.379
     5.65    0.409   0.429   0.420   0.418   0.412   0.404   0.410   0.396   0.395   0.368   0.380   0.394   0.391   0.389   0.377   0.370   0.399   0.410   0.397   0.384   0.401   0.394   0.393   0.371   0.381   0.379   0.377   0.371   0.368   0.357   0.376   0.381   0.368   0.365   0.401
     1.00    0.416   0.430   0.429   0.422   0.438   0.439   0.437   0.413   0.381   0.390   0.369   0.381   0.386   0.381   0.360   0.385   0.386   0.397   0.411   0.387   0.392   0.398   0.380   0.357   0.359   0.365   0.352   0.359   0.338   0.354   0.361   0.379   0.355   0.372   0.380

   Height   Standard deviation at grid points for the w component:
   168.40    0.238   0.243   0.233   0.238   0.240   0.240   0.239   0.236   0.235   0.221   0.237   0.231   0.236   0.235   0.237   0.236   0.234   0.230   0.225   0.231   0.231   0.236   0.226   0.221   0.224   0.231   0.228   0.222   0.235   0.223   0.220   0.219   0.224   0.224   0.224
   163.75    0.235   0.238   0.234   0.235   0.237   0.237   0.236   0.237   0.233   0.234   0.228   0.228   0.226   0.225   0.223   0.226   0.234   0.236   0.243   0.230   0.225   0.232   0.236   0.228   0.226   0.221   0.220   0.213   0.228   0.225   0.222   0.219   0.219   0.224   0.225
   159.10    0.230   0.237   0.233   0.228   0.231   0.230   0.239   0.235   0.235   0.243   0.236   0.231   0.218   0.229   0.224   0.226   0.231   0.241   0.241   0.233   0.237   0.228   0.232   0.223   0.226   0.226   0.223   0.222   0.224   0.227   0.227   0.222   0.211   0.216   0.218
   154.45    0.221   0.224   0.227   0.224   0.238   0.235   0.232   0.235   0.228   0.236   0.233   0.230   0.225   0.228   0.227   0.222   0.224   0.237   0.239   0.232   0.239   0.241   0.226   0.223   0.224   0.215   0.213   0.216   0.220   0.224   0.225   0.222   0.220   0.212   0.221
   149.80    0.229   0.230   0.234   0.230   0.231   0.237   0.229   0.230   0.237   0.234   0.230   0.220   0.224   0.229   0.231   0.226   0.228   0.231   0.223   0.223   0.230   0.234   0.228   0.223   0.215   0.208   0.204   0.209   0.213   0.218   0.221   0.217   0.207   0.215   0.216
   145.15    0.224   0.229   0.228   0.234   0.233   0.238   0.231   0.232   0.231   0.230   0.228   0.237   0.242   0.239   0.243   0.230   0.225   0.230   0.217   0.224   0.233   0.239   0.224   0.223   0.220   0.222   0.222   0.218   0.222   0.225   0.224   0.217   0.213   0.220   0.221
   140.50    0.220   0.226   0.233   0.234   0.243   0.229   0.241   0.237   0.235   0.238   0.228   0.236   0.240   0.249   0.249   0.233   0.228   0.238   0.227   0.226   0.229   0.227   0.218   0.223   0.224   0.226   0.222   0.215   0.224   0.223   0.226   0.223   0.218   0.219   0.213
   135.85    0.223   0.234   0.243   0.234   0.238   0.231   0.240   0.233   0.235   0.223   0.231   0.240   0.241   0.248   0.242   0.227   0.227   0.227   0.229   0.239   0.223   0.228   0.217   0.220   0.230   0.229   0.227   0.227   0.227   0.224   0.216   0.220   0.220   0.213   0.216
   131.20    0.219   0.236   0.243   0.240   0.237   0.242   0.243   0.242   0.233   0.233   0.227   0.239   0.241   0.243   0.233   0.220   0.226   0.219   0.227   0.232   0.228   0.226   0.225   0.228   0.235   0.229   0.233   0.228   0.227   0.225   0.224   0.213   0.218   0.214   0.217
   126.55    0.227   0.232   0.234   0.245   0.240   0.248   0.251   0.245   0.244   0.243   0.240   0.246   0.252   0.245   0.235   0.230   0.228   0.226   0.226   0.231   0.230   0.221   0.234   0.233   0.226   0.229   0.233   0.225   0.223   0.220   0.227   0.223   0.214   0.216   0.221
   121.90    0.221   0.225   0.232   0.234   0.242   0.243   0.246   0.241   0.242   0.252   0.246   0.244   0.253   0.243   0.243   0.252   0.244   0.233   0.235   0.231   0.228   0.233   0.231   0.231   0.219   0.226   0.239   0.235   0.221   0.220   0.230   0.225   0.228   0.228   0.228
   117.25    0.227   0.226   0.229   0.232   0.234   0.231   0.239   0.236   0.238   0.249   0.258   0.243   0.252   0.253   0.245   0.240   0.237   0.244   0.236   0.239   0.234   0.223   0.225   0.225   0.224   0.229   0.234   0.232   0.233   0.225   0.221   0.225   0.230   0.230   0.222
   112.60    0.238   0.243   0.246   0.238   0.230   0.233   0.233   0.237   0.237   0.235   0.250   0.248   0.246   0.239   0.239   0.228   0.229   0.229   0.234   0.235   0.233   0.232   0.225   0.224   0.224   0.228   0.229   0.227   0.228   0.222   0.219   0.227   0.224   0.228   0.222
   107.95    0.240   0.236   0.240   0.235   0.232   0.232   0.237   0.240   0.243   0.236   0.236   0.237   0.241   0.231   0.237   0.235   0.229   0.229   0.234   0.228   0.232   0.234   0.232   0.227   0.215   0.222   0.221   0.231   0.236   0.233   0.225   0.239   0.228   0.233   0.226
   103.30    0.241   0.239   0.237   0.230   0.227   0.228   0.227   0.239   0.239   0.234   0.226   0.232   0.234   0.238   0.233   0.239   0.235   0.226   0.229   0.222   0.229   0.231   0.230   0.230   0.212   0.213   0.217   0.230   0.234   0.238   0.234   0.240   0.245   0.240   0.232
    98.65    0.231   0.238   0.233   0.236   0.229   0.234   0.229   0.233   0.244   0.235   0.228   0.226   0.229   0.234   0.230   0.238   0.235   0.232   0.225   0.221   0.229   0.234   0.230   0.225   0.222   0.214   0.221   0.225   0.230   0.237   0.234   0.231   0.240   0.238   0.232
    94.00    0.237   0.239   0.231   0.235   0.236   0.233   0.233   0.240   0.241   0.239   0.234   0.229   0.235   0.234   0.230   0.230   0.225   0.233   0.229   0.228   0.233   0.223   0.229   0.234   0.230   0.229   0.220   0.217   0.221   0.232   0.238   0.243   0.243   0.237   0.229
    89.35    0.236   0.239   0.241   0.239   0.233   0.233   0.236   0.241   0.241   0.249   0.242   0.240   0.239   0.231   0.225   0.230   0.235   0.230   0.236   0.228   0.231   0.230   0.226   0.230   0.233   0.238   0.223   0.224   0.226   0.237   0.252   0.243   0.238   0.240   0.243
    84.70    0.241   0.240   0.243   0.241   0.239   0.235   0.237   0.244   0.243   0.247   0.254   0.236   0.232   0.234   0.235   0.232   0.239   0.237   0.226   0.231   0.225   0.227   0.233   0.226   0.235   0.232   0.232   0.226   0.234   0.239   0.241   0.245   0.246   0.235   0.238
    80.05    0.236   0.234   0.234   0.250   0.244   0.235   0.232   0.236   0.242   0.254   0.249   0.244   0.249   0.246   0.245   0.237   0.243   0.229   0.231   0.233   0.233   0.231   0.239   0.253   0.240   0.246   0.238   0.232   0.231   0.238   0.246   0.251   0.248   0.243   0.232
    75.40    0.241   0.248   0.240   0.250   0.244   0.231   0.242   0.238   0.243   0.252   0.258   0.243   0.244   0.241   0.243   0.236   0.227   0.219   0.224   0.237   0.239   0.242   0.247   0.248   0.254   0.239   0.234   0.234   0.238   0.227   0.243   0.248   0.245   0.230   0.233
    70.75    0.244   0.255   0.245   0.252   0.252   0.250   0.248   0.245   0.239   0.246   0.252   0.248   0.250   0.241   0.228   0.229   0.234   0.223   0.234   0.238   0.243   0.244   0.242   0.250   0.238   0.234   0.226   0.233   0.235   0.225   0.225   0.235   0.244   0.243   0.236
    66.10    0.240   0.250   0.262   0.263   0.259   0.261   0.250   0.248   0.265   0.256   0.253   0.263   0.237   0.239   0.239   0.232   0.234   0.228   0.237   0.240   0.238   0.253   0.262   0.247   0.230   0.233   0.239   0.240   0.237   0.224   0.227   0.235   0.241   0.243   0.234
    61.45    0.245   0.245   0.245   0.258   0.265   0.274   0.250   0.263   0.269   0.260   0.259   0.256   0.249   0.236   0.231   0.227   0.237   0.241   0.241   0.242   0.256   0.251   0.248   0.250   0.234   0.237   0.243   0.227   0.233   0.232   0.224   0.238   0.229   0.226   0.239
    56.80    0.259   0.257   0.247   0.257   0.260   0.265   0.256   0.256   0.263   0.265   0.257   0.252   0.257   0.246   0.231   0.222   0.232   0.239   0.251   0.240   0.244   0.250   0.247   0.258   0.244   0.244   0.231   0.229   0.224   0.234   0.234   0.231   0.241   0.242   0.235
    52.15    0.255   0.251   0.255   0.256   0.257   0.254   0.265   0.268   0.262   0.269   0.246   0.243   0.246   0.240   0.237   0.223   0.229   0.230   0.239   0.236   0.242   0.238   0.240   0.248   0.256   0.253   0.229   0.233   0.230   0.231   0.228   0.228   0.235   0.234   0.231
    47.50    0.252   0.245   0.246   0.251   0.249   0.259   0.277   0.259   0.252   0.264   0.260   0.256   0.253   0.230   0.227   0.218   0.219   0.222   0.236   0.237   0.237   0.237   0.232   0.248   0.257   0.248   0.242   0.226   0.225   0.226   0.228   0.229   0.226   0.231   0.227
    42.85    0.246   0.254   0.243   0.245   0.246   0.259   0.266   0.268   0.261   0.251   0.247   0.251   0.252   0.237   0.221   0.219   0.219   0.217   0.227   0.226   0.241   0.244   0.239   0.242   0.239   0.240   0.233   0.233   0.225   0.223   0.222   0.225   0.226   0.230   0.227
    38.20    0.256   0.241   0.249   0.242   0.246   0.255   0.254   0.252   0.255   0.248   0.253   0.257   0.258   0.257   0.244   0.239   0.234   0.234   0.229   0.239   0.248   0.249   0.239   0.241   0.241   0.235   0.229   0.230   0.227   0.229   0.229   0.222   0.228   0.229   0.228
    33.55    0.248   0.255   0.255   0.252   0.247   0.254   0.249   0.250   0.253   0.254   0.250   0.243   0.244   0.245   0.248   0.256   0.244   0.244   0.235   0.247   0.247   0.253   0.238   0.234   0.241   0.239   0.233   0.235   0.237   0.226   0.227   0.226   0.220   0.225   0.222
    28.90    0.254   0.239   0.255   0.253   0.252   0.251   0.255   0.257   0.267   0.243   0.246   0.242   0.240   0.253   0.251   0.265   0.261   0.257   0.257   0.254   0.251   0.264   0.257   0.243   0.245   0.253   0.238   0.241   0.240   0.229   0.232   0.214   0.221   0.219   0.216
    24.25    0.249   0.246   0.246   0.249   0.251   0.259   0.259   0.257   0.259   0.246   0.249   0.246   0.248   0.256   0.267   0.265   0.265   0.257   0.265   0.258   0.263   0.261   0.251   0.250   0.237   0.237   0.247   0.241   0.240   0.233   0.233   0.228   0.226   0.226   0.224
    19.60    0.239   0.236   0.229   0.241   0.245   0.244   0.246   0.253   0.254   0.247   0.241   0.241   0.249   0.248   0.249   0.263   0.269   0.273   0.268   0.267   0.271   0.259   0.249   0.245   0.236   0.241   0.242   0.238   0.248   0.241   0.243   0.231   0.222   0.224   0.226
    14.95    0.242   0.237   0.238   0.240   0.247   0.244   0.239   0.233   0.237   0.234   0.239   0.239   0.256   0.252   0.257   0.257   0.256   0.261   0.259   0.260   0.252   0.244   0.244   0.245   0.237   0.233   0.232   0.250   0.256   0.258   0.251   0.247   0.234   0.225   0.232
    10.30    0.239   0.241   0.235   0.232   0.239   0.237   0.233   0.235   0.229   0.233   0.241   0.242   0.245   0.249   0.259   0.260   0.253   0.253   0.245   0.251   0.257   0.254   0.251   0.255   0.249   0.234   0.239   0.245   0.249   0.248   0.243   0.234   0.231   0.235   0.245
     5.65    0.233   0.235   0.234   0.231   0.234   0.242   0.231   0.229   0.232   0.228   0.238   0.245   0.248   0.245   0.249   0.247   0.252   0.254   0.240   0.238   0.250   0.252   0.257   0.256   0.254   0.250   0.247   0.244   0.245   0.242   0.233   0.236   0.240   0.229   0.239
     1.00    0.236   0.240   0.237   0.229   0.230   0.237   0.227   0.230   0.232   0.240   0.241   0.247   0.239   0.240   0.244   0.252   0.248   0.250   0.246   0.247   0.255   0.262   0.258   0.261   0.255   0.246   0.236   0.246   0.248   0.244   0.241   0.242   0.235   0.248   0.245

   Mean standard deviation across all grid points:
      u component:    0.455 m/s
      v component:    0.414 m/s
      w component:    0.237 m/s


U-component (X) statistics from the interpolated hub point:

   Mean =   9.9913 m/s
   TI   =   4.8924 %


Processing complete.  6296.2 CPU seconds used.
