
This summary file was generated by TurbSim (from OpenFAST-v3.5.3) on 20-Apr-2025 at 05:06:13.


Runtime Options:

**********  Random seed #1
    RANLUX  Type of random number generator
         F  Output binary HH turbulence parameters?
         F  Output formatted turbulence parameters?
         F  Output AeroDyn HH files?
         T  Output AeroDyn FF files?
         F  Output BLADED FF files?
         F  Output tower data?
         F  Output HAWC FF files?
         F  Output formatted FF files?
         T  Output coherent turbulence time step file?
 0 -  NONE  IEC turbulence models scaled to exact specified standard deviation


Turbine/Model Specifications:

        37  Vertical grid-point matrix dimension
        35  Horizontal grid-point matrix dimension
     0.250  Time step [seconds]
   900.000  Analysis time [seconds]
   900.000  Usable output time [seconds]
    89.350  Hub height [m]
   167.400  Grid height [m]
   158.100  Grid width [m]
     0.000  Vertical flow angle [degrees]
     0.000  Horizontal flow angle [degrees]


Meteorological Boundary Conditions:

    TIMESR  User-input time series spectral model
       N/A  IEC standard
       N/A  IEC turbulence characteristic
       N/A  IEC turbulence type
       N/A  IEC Extreme Turbulence Model (ETM) "c" parameter [m/s]
       PL   Wind profile type
    90.000  Reference height [m]
    10.000  Reference wind speed [m/s]
       N/A  Jet height [m]
     0.120  Power law exponent
     0.030  Surface roughness length [m]


Non-IEC Meteorological Boundary Conditions:

    45.000  Site latitude [degrees]
     0.050  Gradient Richardson number
     0.480  Friction or shear velocity [m/s]
       N/A  Mixing layer depth [m]
       N/A  Mean hub u'w' Reynolds stress
       N/A  Mean hub u'v' Reynolds stress
       N/A  Mean hub v'w' Reynolds stress


Spatial Coherence Models:

       IEC  u-component coherence model
       IEC  v-component coherence model
       IEC  w-component coherence model
(   12.000, 0.353E-03)  u-component coherence parameters
(   12.000, 0.353E-03)  v-component coherence parameters
(   12.000, 0.353E-03)  w-component coherence parameters
       N/A  Coherence exponent


Coherent Turbulence Scaling Parameters:

.\EventData
            Name of the path containing the coherent turbulence data files
       les  Type of coherent turbulence data files
     1.000  Disturbance scale (ratio of wave height to rotor diameter)
     0.500  Fractional location of tower centerline from right
     0.500  Fractional location of hub height from the bottom of the dataset
    30.000  Minimum start time for coherent structures [seconds]


Profiles from User-Defined Time-Series Input:

  Height   Wind Speed   Horizontal Angle   Vertical Angle
   (m)        (m/s)          (deg)              (deg)    
  ------   ----------   ----------------   --------------
   94.00      10.00          -0.63               -0.00


You have requested that the following file(s) be generated:

   /kfs3/scratch/agupta/Projects/RL_Incubator/FinalRuns_Veer/Seed4/./FFSim_Seed4/Cond00_v10.0_PL0.12_TI2.5/Case1_wdirp02/Seed_2/TurbSim/HighT5.bts (AeroDyn/TurbSim full-field wind file)


Turbulence Simulation Scaling Parameter Summary:

   Turbulence model used                            =  User-input time series
   Gradient Richardson number                       =    0.050
   Monin-Obukhov (M-O) z/L parameter                =    0.067
   Monin-Obukhov (M-O) length scale                 = 1340.250 m
   Mean wind speed at hub height                    =    9.991 m/s

   Wind profile type                                =  Power law
   Power law exponent                               =    0.120
   Mean shear across rotor disk                     =    0.019 (m/s)/m
   Assumed rotor diameter                           =  158.100 m
   Surface roughness length                         =    0.030 m

   Nyquist frequency of turbulent wind field        =    2.000 Hz

   Number of time steps in the FFT                  =     3600
   Number of time steps output                      =     3600
   Number of points simulated                       =     1296


Mean Flow Angles:

   Vertical   =   0.0 degrees
   Horizontal =   0.0 degrees

Mean Wind Speed Profile:

   Height    Wind Speed   Horizontal Angle  Vertical Angle  U-comp (X)   V-comp (Y)   W-comp (Z)
     (m)        (m/s)         (degrees)       (degrees)       (m/s)        (m/s)        (m/s)   
   ------    ----------   ----------------  --------------  ----------   ----------   ----------
    168.4       10.78            0.00            0.00         10.78         0.00         0.00
    163.7       10.74            0.00            0.00         10.74         0.00         0.00
    159.1       10.71            0.00            0.00         10.71         0.00         0.00
    154.4       10.67            0.00            0.00         10.67         0.00         0.00
    149.8       10.63            0.00            0.00         10.63         0.00         0.00
    145.1       10.59            0.00            0.00         10.59         0.00         0.00
    140.5       10.55            0.00            0.00         10.55         0.00         0.00
    135.8       10.51            0.00            0.00         10.51         0.00         0.00
    131.2       10.46            0.00            0.00         10.46         0.00         0.00
    126.5       10.42            0.00            0.00         10.42         0.00         0.00
    121.9       10.37            0.00            0.00         10.37         0.00         0.00
    117.2       10.32            0.00            0.00         10.32         0.00         0.00
    112.6       10.27            0.00            0.00         10.27         0.00         0.00
    107.9       10.22            0.00            0.00         10.22         0.00         0.00
    103.3       10.17            0.00            0.00         10.17         0.00         0.00
     98.6       10.11            0.00            0.00         10.11         0.00         0.00
     94.0       10.05            0.00            0.00         10.05         0.00         0.00
     89.3        9.99            0.00            0.00          9.99         0.00         0.00
     84.7        9.93            0.00            0.00          9.93         0.00         0.00
     80.0        9.86            0.00            0.00          9.86         0.00         0.00
     75.4        9.79            0.00            0.00          9.79         0.00         0.00
     70.7        9.72            0.00            0.00          9.72         0.00         0.00
     66.1        9.64            0.00            0.00          9.64         0.00         0.00
     61.4        9.55            0.00            0.00          9.55         0.00         0.00
     56.8        9.46            0.00            0.00          9.46         0.00         0.00
     52.1        9.37            0.00            0.00          9.37         0.00         0.00
     47.5        9.26            0.00            0.00          9.26         0.00         0.00
     42.8        9.15            0.00            0.00          9.15         0.00         0.00
     38.2        9.02            0.00            0.00          9.02         0.00         0.00
     33.5        8.88            0.00            0.00          8.88         0.00         0.00
     28.9        8.73            0.00            0.00          8.73         0.00         0.00
     24.2        8.54            0.00            0.00          8.54         0.00         0.00
     19.6        8.33            0.00            0.00          8.33         0.00         0.00
     14.9        8.06            0.00            0.00          8.06         0.00         0.00
     10.3        7.71            0.00            0.00          7.71         0.00         0.00
      5.6        7.17            0.00            0.00          7.17         0.00         0.00
      1.0        5.83            0.00            0.00          5.83         0.00         0.00


Harvested Random Seeds after Generation of the Random Numbers:

     65026800 K 1
            0 K 2


Hub-Height Simulated Turbulence Statistical Summary:

   Type of Wind        Min (m/s)   Mean (m/s)    Max (m/s)  Sigma (m/s)       TI (%)
   ----------------    ---------   ----------    ---------  -----------       ------
   Longitudinal (u)         9.22         9.99        10.67        0.226        2.266
   Lateral (v)             -0.51         0.00         0.59        0.174        1.741
   Vertical (w)            -0.44        -0.00         0.48        0.120        1.201
   U component              9.22         9.99        10.67        0.226        2.266
   V component             -0.51         0.00         0.59        0.174        1.741
   W component             -0.44        -0.00         0.48        0.120        1.201
   Horizontal (U&V)         9.22         9.99        10.67        0.226        2.266
   Total                    9.22         9.99        10.67        0.226        2.266

                       Min Reynolds     Mean Reynolds    Max Reynolds    Correlation
   Product             Stress (m/s)^2   Stress (m/s)^2   Stress (m/s)^2  Coefficient
   ----------------    --------------   --------------   --------------  -----------
   u'w'                     -0.179             0.002             0.176         0.058
   u'v'                     -0.228            -0.007             0.160        -0.172
   v'w'                     -0.115            -0.000             0.157        -0.009


   Friction Velocity (Ustar)  =      0.040 m/s
   Maximum Instantaneous TKE  =      0.296 (m/s)^2
   Maximum Instantaneous CTKE =      0.141 (m/s)^2


Grid Point Variance Summary:

   Y-coord  -79.05  -74.40  -69.75  -65.10  -60.45  -55.80  -51.15  -46.50  -41.85  -37.20  -32.55  -27.90  -23.25  -18.60  -13.95   -9.30   -4.65    0.00    4.65    9.30   13.95   18.60   23.25   27.90   32.55   37.20   41.85   46.50   51.15   55.80   60.45   65.10   69.75   74.40   79.05

   Height   Standard deviation at grid points for the u component:
   168.40    0.175   0.177   0.193   0.199   0.210   0.212   0.217   0.214   0.219   0.233   0.250   0.253   0.238   0.228   0.220   0.239   0.247   0.247   0.255   0.249   0.253   0.265   0.250   0.243   0.240   0.250   0.258   0.237   0.265   0.270   0.293   0.294   0.267   0.260   0.265
   163.75    0.187   0.191   0.201   0.204   0.208   0.211   0.224   0.204   0.217   0.230   0.238   0.246   0.255   0.233   0.223   0.241   0.257   0.248   0.249   0.251   0.261   0.261   0.261   0.251   0.235   0.237   0.237   0.253   0.261   0.263   0.272   0.275   0.282   0.269   0.290
   159.10    0.185   0.191   0.201   0.210   0.217   0.207   0.219   0.211   0.241   0.231   0.241   0.267   0.257   0.243   0.243   0.254   0.253   0.247   0.236   0.244   0.253   0.275   0.260   0.230   0.237   0.251   0.249   0.261   0.256   0.241   0.261   0.250   0.244   0.265   0.276
   154.45    0.199   0.200   0.207   0.223   0.227   0.222   0.226   0.226   0.235   0.242   0.256   0.267   0.264   0.273   0.254   0.262   0.251   0.247   0.243   0.246   0.266   0.263   0.259   0.244   0.242   0.253   0.255   0.255   0.254   0.261   0.261   0.254   0.257   0.248   0.273
   149.80    0.219   0.227   0.232   0.238   0.218   0.227   0.229   0.229   0.226   0.244   0.254   0.262   0.274   0.272   0.243   0.268   0.266   0.270   0.247   0.236   0.259   0.259   0.239   0.228   0.245   0.247   0.266   0.275   0.263   0.266   0.253   0.233   0.233   0.252   0.260
   145.15    0.231   0.232   0.242   0.239   0.228   0.242   0.239   0.234   0.226   0.241   0.253   0.261   0.275   0.269   0.251   0.278   0.279   0.277   0.251   0.251   0.256   0.242   0.230   0.237   0.230   0.250   0.273   0.270   0.266   0.281   0.269   0.244   0.233   0.256   0.259
   140.50    0.219   0.225   0.223   0.225   0.237   0.253   0.254   0.239   0.234   0.247   0.258   0.258   0.266   0.265   0.260   0.275   0.289   0.277   0.262   0.276   0.247   0.254   0.261   0.243   0.247   0.242   0.256   0.275   0.277   0.281   0.279   0.260   0.241   0.257   0.258
   135.85    0.233   0.226   0.228   0.223   0.233   0.257   0.259   0.241   0.228   0.241   0.265   0.255   0.258   0.264   0.286   0.289   0.295   0.277   0.276   0.280   0.263   0.266   0.259   0.254   0.261   0.238   0.252   0.251   0.249   0.260   0.270   0.250   0.257   0.244   0.247
   131.20    0.228   0.221   0.236   0.225   0.242   0.256   0.256   0.250   0.233   0.247   0.263   0.256   0.262   0.264   0.262   0.276   0.298   0.294   0.271   0.271   0.281   0.265   0.261   0.240   0.240   0.253   0.240   0.254   0.266   0.245   0.263   0.247   0.241   0.252   0.244
   126.55    0.233   0.240   0.227   0.243   0.234   0.238   0.262   0.251   0.240   0.251   0.260   0.262   0.253   0.249   0.254   0.276   0.289   0.290   0.288   0.277   0.281   0.262   0.255   0.244   0.238   0.246   0.244   0.250   0.267   0.247   0.270   0.256   0.262   0.263   0.237
   121.90    0.235   0.250   0.237   0.242   0.224   0.225   0.245   0.267   0.264   0.267   0.262   0.277   0.255   0.255   0.248   0.267   0.288   0.269   0.264   0.278   0.274   0.270   0.267   0.258   0.259   0.263   0.278   0.264   0.278   0.272   0.273   0.287   0.263   0.259   0.248
   117.25    0.247   0.248   0.240   0.248   0.241   0.236   0.247   0.268   0.266   0.266   0.286   0.278   0.256   0.254   0.258   0.260   0.282   0.281   0.275   0.276   0.266   0.265   0.278   0.260   0.266   0.258   0.275   0.263   0.282   0.299   0.287   0.274   0.248   0.254   0.251
   112.60    0.240   0.242   0.231   0.257   0.261   0.276   0.286   0.263   0.258   0.263   0.278   0.280   0.266   0.271   0.254   0.272   0.274   0.265   0.274   0.263   0.255   0.267   0.268   0.269   0.274   0.264   0.268   0.279   0.275   0.278   0.280   0.273   0.250   0.245   0.245
   107.95    0.235   0.246   0.245   0.249   0.259   0.282   0.282   0.253   0.243   0.256   0.270   0.275   0.269   0.270   0.247   0.240   0.249   0.252   0.255   0.272   0.264   0.276   0.269   0.277   0.281   0.294   0.264   0.270   0.262   0.265   0.250   0.266   0.249   0.243   0.256
   103.30    0.239   0.241   0.246   0.261   0.270   0.269   0.273   0.254   0.240   0.251   0.259   0.259   0.259   0.257   0.244   0.243   0.243   0.226   0.227   0.258   0.257   0.262   0.262   0.272   0.281   0.277   0.258   0.251   0.249   0.246   0.260   0.262   0.248   0.244   0.252
    98.65    0.244   0.254   0.251   0.260   0.261   0.269   0.264   0.254   0.241   0.230   0.240   0.242   0.248   0.244   0.235   0.232   0.227   0.220   0.240   0.256   0.268   0.274   0.295   0.281   0.279   0.278   0.259   0.265   0.254   0.272   0.262   0.248   0.254   0.245   0.245
    94.00    0.241   0.251   0.240   0.251   0.259   0.262   0.249   0.251   0.235   0.242   0.224   0.239   0.253   0.252   0.253   0.245   0.233   0.233   0.239   0.255   0.258   0.270   0.284   0.295   0.265   0.238   0.265   0.272   0.263   0.275   0.260   0.267   0.248   0.239   0.248
    89.35    0.227   0.240   0.231   0.230   0.240   0.254   0.249   0.247   0.227   0.233   0.235   0.229   0.238   0.239   0.234   0.230   0.235   0.226   0.211   0.240   0.243   0.269   0.283   0.285   0.271   0.254   0.266   0.267   0.245   0.264   0.268   0.267   0.243   0.235   0.238
    84.70    0.220   0.228   0.229   0.249   0.243   0.242   0.252   0.239   0.237   0.240   0.238   0.241   0.234   0.228   0.222   0.229   0.228   0.237   0.230   0.247   0.246   0.258   0.277   0.281   0.282   0.275   0.264   0.259   0.270   0.253   0.262   0.252   0.242   0.231   0.230
    80.05    0.211   0.224   0.236   0.246   0.255   0.245   0.247   0.257   0.249   0.234   0.228   0.229   0.227   0.235   0.236   0.244   0.265   0.256   0.258   0.272   0.264   0.283   0.283   0.288   0.272   0.279   0.263   0.262   0.258   0.259   0.260   0.244   0.229   0.229   0.233
    75.40    0.219   0.215   0.222   0.225   0.243   0.260   0.255   0.266   0.258   0.245   0.251   0.248   0.247   0.263   0.256   0.265   0.282   0.283   0.291   0.283   0.284   0.280   0.292   0.293   0.294   0.268   0.271   0.272   0.263   0.255   0.265   0.246   0.238   0.247   0.242
    70.75    0.238   0.217   0.218   0.222   0.239   0.249   0.268   0.265   0.264   0.233   0.245   0.257   0.257   0.262   0.266   0.272   0.276   0.298   0.284   0.277   0.278   0.267   0.278   0.280   0.281   0.279   0.281   0.295   0.277   0.271   0.262   0.248   0.247   0.246   0.252
    66.10    0.232   0.225   0.222   0.209   0.227   0.242   0.269   0.247   0.256   0.241   0.240   0.242   0.255   0.258   0.275   0.281   0.295   0.303   0.278   0.279   0.269   0.280   0.277   0.274   0.275   0.267   0.276   0.293   0.280   0.270   0.257   0.243   0.241   0.245   0.250
    61.45    0.214   0.223   0.226   0.216   0.231   0.249   0.267   0.261   0.259   0.253   0.260   0.264   0.272   0.263   0.289   0.305   0.304   0.288   0.298   0.300   0.297   0.294   0.303   0.298   0.285   0.279   0.293   0.288   0.282   0.281   0.255   0.251   0.253   0.243   0.245
    56.80    0.219   0.217   0.234   0.241   0.252   0.248   0.263   0.284   0.281   0.271   0.259   0.252   0.243   0.264   0.291   0.306   0.299   0.299   0.288   0.301   0.306   0.307   0.291   0.304   0.290   0.290   0.282   0.277   0.269   0.276   0.265   0.258   0.249   0.249   0.258
    52.15    0.232   0.238   0.234   0.245   0.258   0.280   0.260   0.271   0.274   0.253   0.258   0.278   0.273   0.269   0.271   0.302   0.310   0.299   0.310   0.306   0.291   0.295   0.310   0.309   0.284   0.293   0.276   0.273   0.285   0.263   0.259   0.265   0.269   0.253   0.249
    47.50    0.231   0.225   0.234   0.259   0.283   0.286   0.272   0.287   0.261   0.279   0.280   0.274   0.275   0.283   0.284   0.297   0.299   0.273   0.291   0.289   0.310   0.294   0.314   0.297   0.278   0.301   0.276   0.265   0.282   0.269   0.273   0.267   0.269   0.259   0.263
    42.85    0.240   0.237   0.239   0.276   0.278   0.263   0.276   0.271   0.279   0.273   0.282   0.293   0.298   0.313   0.293   0.292   0.285   0.277   0.278   0.273   0.290   0.299   0.302   0.293   0.288   0.284   0.278   0.278   0.263   0.276   0.265   0.274   0.275   0.268   0.268
    38.20    0.233   0.243   0.255   0.263   0.276   0.281   0.293   0.290   0.287   0.282   0.292   0.282   0.302   0.314   0.315   0.293   0.284   0.279   0.271   0.273   0.283   0.279   0.284   0.294   0.261   0.254   0.256   0.259   0.265   0.257   0.249   0.264   0.261   0.256   0.261
    33.55    0.250   0.235   0.247   0.262   0.280   0.280   0.293   0.278   0.272   0.270   0.287   0.287   0.291   0.300   0.292   0.301   0.302   0.285   0.294   0.274   0.271   0.263   0.283   0.274   0.267   0.247   0.250   0.255   0.259   0.259   0.241   0.253   0.259   0.260   0.275
    28.90    0.234   0.233   0.245   0.270   0.287   0.295   0.301   0.296   0.290   0.295   0.274   0.266   0.284   0.273   0.275   0.309   0.330   0.305   0.288   0.273   0.276   0.270   0.276   0.250   0.257   0.255   0.250   0.243   0.254   0.261   0.252   0.248   0.260   0.264   0.275
    24.25    0.228   0.230   0.254   0.247   0.280   0.302   0.307   0.305   0.281   0.300   0.272   0.282   0.272   0.261   0.281   0.302   0.307   0.308   0.294   0.302   0.287   0.265   0.278   0.264   0.256   0.262   0.256   0.265   0.263   0.265   0.246   0.259   0.262   0.267   0.267
    19.60    0.234   0.229   0.258   0.244   0.273   0.287   0.295   0.281   0.294   0.279   0.266   0.265   0.269   0.277   0.286   0.280   0.295   0.278   0.302   0.293   0.286   0.267   0.279   0.259   0.257   0.258   0.275   0.270   0.263   0.258   0.250   0.248   0.263   0.263   0.261
    14.95    0.240   0.266   0.260   0.260   0.272   0.277   0.285   0.286   0.275   0.274   0.268   0.272   0.259   0.258   0.253   0.274   0.283   0.284   0.293   0.297   0.279   0.268   0.260   0.265   0.263   0.272   0.285   0.274   0.262   0.273   0.254   0.259   0.277   0.279   0.276
    10.30    0.258   0.253   0.274   0.286   0.261   0.266   0.267   0.267   0.267   0.264   0.256   0.289   0.259   0.255   0.249   0.265   0.270   0.255   0.270   0.284   0.275   0.270   0.259   0.244   0.269   0.283   0.274   0.273   0.274   0.274   0.279   0.279   0.289   0.278   0.265
     5.65    0.267   0.267   0.265   0.274   0.257   0.257   0.247   0.238   0.256   0.267   0.274   0.281   0.280   0.266   0.251   0.251   0.255   0.272   0.270   0.265   0.272   0.262   0.245   0.247   0.266   0.274   0.274   0.272   0.291   0.291   0.281   0.293   0.280   0.270   0.267
     1.00    0.253   0.261   0.255   0.259   0.257   0.240   0.220   0.236   0.243   0.257   0.256   0.258   0.283   0.261   0.242   0.255   0.253   0.270   0.256   0.249   0.239   0.245   0.242   0.260   0.263   0.273   0.284   0.294   0.274   0.278   0.271   0.283   0.256   0.262   0.262

   Height   Standard deviation at grid points for the v component:
   168.40    0.197   0.188   0.185   0.182   0.184   0.189   0.182   0.176   0.175   0.181   0.174   0.179   0.183   0.191   0.184   0.181   0.195   0.193   0.200   0.189   0.192   0.186   0.182   0.189   0.191   0.197   0.193   0.194   0.190   0.182   0.196   0.190   0.198   0.198   0.186
   163.75    0.185   0.185   0.190   0.187   0.188   0.188   0.170   0.176   0.185   0.179   0.181   0.182   0.189   0.191   0.186   0.189   0.195   0.193   0.191   0.185   0.184   0.183   0.174   0.183   0.186   0.190   0.183   0.185   0.179   0.192   0.189   0.190   0.188   0.190   0.191
   159.10    0.185   0.190   0.191   0.195   0.191   0.191   0.176   0.176   0.178   0.188   0.194   0.183   0.187   0.196   0.193   0.189   0.196   0.190   0.179   0.184   0.189   0.186   0.191   0.186   0.195   0.190   0.189   0.184   0.178   0.195   0.191   0.187   0.185   0.190   0.193
   154.45    0.179   0.189   0.193   0.185   0.183   0.183   0.178   0.177   0.172   0.188   0.188   0.190   0.191   0.193   0.190   0.187   0.193   0.191   0.180   0.187   0.186   0.189   0.188   0.192   0.191   0.196   0.192   0.178   0.184   0.189   0.194   0.186   0.194   0.186   0.197
   149.80    0.176   0.173   0.186   0.180   0.177   0.172   0.174   0.173   0.168   0.185   0.191   0.181   0.184   0.186   0.182   0.182   0.185   0.185   0.183   0.184   0.184   0.192   0.199   0.193   0.189   0.188   0.196   0.185   0.190   0.192   0.195   0.189   0.193   0.193   0.194
   145.15    0.173   0.176   0.176   0.180   0.174   0.168   0.159   0.170   0.179   0.184   0.184   0.184   0.177   0.171   0.177   0.178   0.175   0.186   0.190   0.179   0.175   0.192   0.195   0.199   0.189   0.186   0.196   0.183   0.188   0.189   0.190   0.191   0.196   0.196   0.201
   140.50    0.177   0.174   0.173   0.162   0.172   0.160   0.167   0.173   0.181   0.184   0.192   0.188   0.174   0.167   0.174   0.174   0.186   0.183   0.191   0.186   0.174   0.187   0.197   0.197   0.186   0.188   0.201   0.182   0.173   0.182   0.184   0.195   0.189   0.190   0.192
   135.85    0.184   0.175   0.168   0.157   0.160   0.154   0.161   0.175   0.188   0.180   0.190   0.185   0.177   0.172   0.168   0.175   0.176   0.184   0.182   0.181   0.175   0.181   0.180   0.180   0.184   0.193   0.187   0.187   0.186   0.179   0.175   0.183   0.192   0.188   0.183
   131.20    0.188   0.177   0.169   0.166   0.160   0.155   0.156   0.173   0.177   0.178   0.179   0.175   0.174   0.167   0.168   0.179   0.187   0.191   0.176   0.176   0.181   0.187   0.185   0.184   0.180   0.179   0.179   0.189   0.178   0.185   0.181   0.180   0.185   0.187   0.179
   126.55    0.179   0.177   0.171   0.170   0.162   0.162   0.161   0.164   0.165   0.168   0.173   0.173   0.171   0.171   0.174   0.177   0.193   0.192   0.179   0.187   0.177   0.180   0.178   0.183   0.175   0.178   0.186   0.184   0.190   0.187   0.188   0.189   0.181   0.174   0.178
   121.90    0.185   0.181   0.177   0.175   0.164   0.167   0.169   0.165   0.163   0.166   0.171   0.169   0.171   0.176   0.178   0.179   0.194   0.194   0.192   0.198   0.183   0.178   0.185   0.186   0.182   0.183   0.184   0.181   0.188   0.187   0.186   0.181   0.184   0.176   0.183
   117.25    0.175   0.175   0.175   0.175   0.164   0.165   0.168   0.169   0.171   0.163   0.179   0.180   0.185   0.176   0.176   0.182   0.190   0.192   0.193   0.201   0.185   0.186   0.188   0.184   0.195   0.193   0.194   0.184   0.189   0.190   0.187   0.185   0.184   0.175   0.180
   112.60    0.173   0.176   0.172   0.168   0.157   0.163   0.168   0.160   0.166   0.170   0.175   0.180   0.184   0.182   0.177   0.177   0.181   0.188   0.193   0.197   0.191   0.193   0.189   0.184   0.196   0.195   0.203   0.201   0.195   0.198   0.185   0.183   0.180   0.178   0.180
   107.95    0.167   0.173   0.171   0.167   0.167   0.167   0.167   0.171   0.175   0.173   0.177   0.169   0.175   0.174   0.188   0.181   0.188   0.177   0.184   0.186   0.186   0.183   0.181   0.197   0.206   0.197   0.201   0.199   0.192   0.196   0.192   0.187   0.183   0.187   0.184
   103.30    0.168   0.166   0.169   0.172   0.172   0.175   0.173   0.175   0.174   0.182   0.177   0.178   0.170   0.169   0.177   0.181   0.190   0.188   0.183   0.185   0.187   0.183   0.185   0.196   0.204   0.209   0.205   0.213   0.210   0.199   0.200   0.199   0.194   0.186   0.174
    98.65    0.179   0.172   0.176   0.173   0.167   0.170   0.174   0.172   0.177   0.172   0.169   0.169   0.167   0.160   0.172   0.188   0.191   0.194   0.182   0.186   0.188   0.185   0.188   0.199   0.209   0.213   0.205   0.210   0.210   0.198   0.190   0.194   0.183   0.182   0.174
    94.00    0.181   0.176   0.187   0.176   0.172   0.171   0.172   0.174   0.172   0.170   0.169   0.167   0.173   0.179   0.173   0.179   0.185   0.184   0.179   0.182   0.176   0.180   0.191   0.189   0.197   0.204   0.200   0.195   0.198   0.189   0.182   0.185   0.180   0.181   0.181
    89.35    0.186   0.179   0.172   0.170   0.179   0.172   0.182   0.187   0.183   0.173   0.171   0.163   0.169   0.172   0.175   0.180   0.180   0.174   0.165   0.174   0.176   0.179   0.178   0.174   0.185   0.195   0.198   0.197   0.201   0.188   0.186   0.188   0.179   0.183   0.191
    84.70    0.191   0.185   0.176   0.181   0.176   0.166   0.174   0.181   0.174   0.160   0.159   0.161   0.163   0.172   0.183   0.180   0.181   0.175   0.168   0.170   0.175   0.173   0.181   0.182   0.196   0.189   0.188   0.192   0.196   0.183   0.183   0.182   0.183   0.184   0.184
    80.05    0.179   0.175   0.171   0.171   0.171   0.163   0.166   0.170   0.175   0.165   0.158   0.159   0.165   0.175   0.179   0.176   0.173   0.174   0.173   0.172   0.173   0.176   0.183   0.190   0.182   0.192   0.189   0.185   0.184   0.183   0.175   0.183   0.189   0.188   0.176
    75.40    0.185   0.179   0.167   0.168   0.164   0.170   0.167   0.171   0.165   0.177   0.173   0.169   0.162   0.167   0.173   0.174   0.176   0.173   0.176   0.186   0.179   0.180   0.185   0.180   0.185   0.191   0.198   0.202   0.186   0.183   0.174   0.181   0.189   0.186   0.182
    70.75    0.178   0.172   0.165   0.159   0.159   0.166   0.166   0.165   0.164   0.169   0.167   0.169   0.175   0.166   0.177   0.181   0.180   0.178   0.174   0.187   0.186   0.191   0.191   0.189   0.180   0.197   0.206   0.195   0.193   0.185   0.175   0.176   0.179   0.193   0.193
    66.10    0.166   0.163   0.168   0.156   0.163   0.172   0.165   0.158   0.160   0.169   0.169   0.167   0.170   0.179   0.176   0.181   0.180   0.180   0.179   0.194   0.195   0.196   0.195   0.187   0.198   0.195   0.196   0.191   0.175   0.190   0.181   0.176   0.186   0.192   0.185
    61.45    0.173   0.160   0.158   0.162   0.166   0.173   0.168   0.165   0.169   0.166   0.161   0.166   0.162   0.170   0.176   0.176   0.181   0.182   0.189   0.197   0.195   0.199   0.201   0.195   0.193   0.192   0.185   0.183   0.181   0.188   0.188   0.181   0.184   0.191   0.185
    56.80    0.175   0.168   0.167   0.175   0.173   0.181   0.174   0.174   0.169   0.172   0.163   0.162   0.161   0.170   0.178   0.178   0.180   0.177   0.190   0.199   0.198   0.199   0.202   0.200   0.189   0.192   0.180   0.175   0.177   0.177   0.176   0.177   0.183   0.184   0.190
    52.15    0.170   0.171   0.182   0.177   0.178   0.182   0.181   0.167   0.163   0.162   0.160   0.161   0.161   0.163   0.171   0.178   0.178   0.180   0.193   0.196   0.201   0.202   0.195   0.198   0.192   0.188   0.180   0.173   0.170   0.174   0.169   0.171   0.169   0.181   0.184
    47.50    0.154   0.171   0.180   0.175   0.178   0.171   0.166   0.165   0.170   0.169   0.172   0.170   0.175   0.172   0.181   0.185   0.186   0.188   0.193   0.187   0.192   0.197   0.201   0.190   0.189   0.178   0.176   0.170   0.182   0.181   0.178   0.173   0.175   0.176   0.182
    42.85    0.160   0.168   0.173   0.169   0.169   0.178   0.179   0.169   0.167   0.173   0.169   0.168   0.176   0.178   0.190   0.185   0.175   0.172   0.182   0.182   0.190   0.199   0.196   0.183   0.180   0.169   0.166   0.172   0.182   0.185   0.177   0.179   0.179   0.172   0.177
    38.20    0.164   0.163   0.172   0.173   0.169   0.173   0.169   0.172   0.167   0.164   0.164   0.169   0.175   0.179   0.189   0.181   0.171   0.173   0.176   0.177   0.180   0.188   0.188   0.178   0.171   0.176   0.169   0.173   0.178   0.184   0.184   0.180   0.186   0.177   0.178
    33.55    0.160   0.161   0.169   0.169   0.164   0.167   0.165   0.166   0.166   0.163   0.160   0.169   0.169   0.170   0.169   0.172   0.177   0.170   0.175   0.182   0.177   0.184   0.177   0.167   0.164   0.175   0.171   0.178   0.171   0.182   0.169   0.173   0.179   0.173   0.179
    28.90    0.166   0.161   0.159   0.168   0.162   0.160   0.163   0.164   0.159   0.160   0.162   0.166   0.168   0.171   0.168   0.173   0.165   0.173   0.176   0.171   0.183   0.180   0.173   0.170   0.166   0.161   0.174   0.177   0.180   0.186   0.179   0.177   0.182   0.174   0.180
    24.25    0.170   0.162   0.165   0.167   0.160   0.166   0.166   0.168   0.170   0.158   0.156   0.164   0.173   0.173   0.180   0.174   0.161   0.166   0.167   0.172   0.181   0.183   0.173   0.173   0.174   0.167   0.181   0.184   0.176   0.182   0.179   0.180   0.186   0.184   0.177
    19.60    0.166   0.172   0.164   0.170   0.174   0.176   0.184   0.179   0.175   0.170   0.164   0.163   0.166   0.172   0.176   0.176   0.161   0.164   0.181   0.180   0.187   0.180   0.180   0.174   0.169   0.167   0.184   0.190   0.177   0.173   0.173   0.176   0.192   0.185   0.175
    14.95    0.173   0.179   0.175   0.174   0.178   0.183   0.182   0.185   0.173   0.167   0.159   0.165   0.175   0.172   0.175   0.183   0.180   0.174   0.184   0.183   0.192   0.186   0.189   0.175   0.167   0.162   0.172   0.175   0.182   0.182   0.187   0.186   0.193   0.188   0.184
    10.30    0.184   0.181   0.176   0.177   0.172   0.183   0.184   0.185   0.183   0.171   0.168   0.162   0.170   0.178   0.172   0.174   0.182   0.182   0.188   0.196   0.191   0.190   0.182   0.175   0.175   0.173   0.182   0.190   0.186   0.187   0.194   0.181   0.190   0.184   0.188
     5.65    0.174   0.184   0.180   0.179   0.177   0.191   0.182   0.183   0.184   0.177   0.174   0.165   0.171   0.175   0.176   0.179   0.187   0.179   0.185   0.185   0.191   0.182   0.178   0.178   0.175   0.173   0.175   0.179   0.187   0.185   0.184   0.188   0.186   0.179   0.176
     1.00    0.182   0.183   0.181   0.177   0.188   0.190   0.184   0.179   0.179   0.176   0.178   0.176   0.177   0.168   0.172   0.174   0.175   0.179   0.188   0.178   0.186   0.181   0.177   0.179   0.183   0.165   0.176   0.178   0.187   0.186   0.179   0.184   0.182   0.175   0.169

   Height   Standard deviation at grid points for the w component:
   168.40    0.123   0.122   0.120   0.117   0.115   0.116   0.113   0.115   0.120   0.119   0.116   0.118   0.120   0.124   0.127   0.127   0.120   0.122   0.122   0.115   0.114   0.116   0.118   0.123   0.124   0.119   0.120   0.122   0.124   0.122   0.119   0.119   0.116   0.114   0.117
   163.75    0.116   0.122   0.124   0.118   0.118   0.120   0.120   0.123   0.119   0.119   0.113   0.116   0.121   0.127   0.127   0.130   0.123   0.125   0.124   0.122   0.124   0.121   0.118   0.118   0.124   0.121   0.122   0.124   0.121   0.119   0.121   0.117   0.117   0.125   0.119
   159.10    0.113   0.116   0.118   0.119   0.117   0.119   0.123   0.126   0.124   0.119   0.116   0.115   0.118   0.124   0.129   0.132   0.128   0.128   0.128   0.128   0.124   0.119   0.122   0.123   0.123   0.126   0.127   0.122   0.125   0.121   0.122   0.124   0.120   0.123   0.119
   154.45    0.115   0.114   0.117   0.115   0.118   0.119   0.120   0.119   0.118   0.119   0.119   0.122   0.117   0.122   0.125   0.131   0.131   0.130   0.131   0.129   0.131   0.125   0.124   0.125   0.119   0.122   0.122   0.121   0.123   0.119   0.123   0.127   0.123   0.118   0.122
   149.80    0.115   0.115   0.117   0.114   0.118   0.120   0.119   0.121   0.125   0.121   0.119   0.122   0.119   0.119   0.121   0.122   0.125   0.131   0.131   0.127   0.129   0.129   0.125   0.123   0.122   0.121   0.121   0.122   0.116   0.120   0.121   0.123   0.122   0.123   0.119
   145.15    0.115   0.119   0.121   0.117   0.123   0.121   0.118   0.119   0.123   0.120   0.120   0.119   0.122   0.119   0.121   0.125   0.124   0.127   0.126   0.131   0.125   0.125   0.121   0.122   0.121   0.115   0.118   0.116   0.116   0.121   0.128   0.125   0.118   0.125   0.127
   140.50    0.119   0.120   0.122   0.127   0.128   0.120   0.118   0.121   0.122   0.118   0.117   0.116   0.120   0.121   0.118   0.119   0.123   0.123   0.125   0.124   0.125   0.123   0.121   0.122   0.123   0.114   0.111   0.117   0.120   0.118   0.121   0.118   0.119   0.120   0.126
   135.85    0.118   0.123   0.123   0.126   0.126   0.124   0.119   0.118   0.119   0.115   0.115   0.116   0.116   0.115   0.120   0.119   0.125   0.119   0.119   0.120   0.119   0.119   0.121   0.126   0.124   0.118   0.117   0.118   0.122   0.119   0.114   0.115   0.116   0.114   0.116
   131.20    0.124   0.127   0.129   0.124   0.125   0.127   0.119   0.116   0.117   0.119   0.117   0.120   0.120   0.118   0.116   0.119   0.123   0.118   0.118   0.118   0.116   0.119   0.119   0.121   0.123   0.123   0.120   0.121   0.130   0.124   0.117   0.113   0.113   0.114   0.116
   126.55    0.126   0.126   0.124   0.127   0.124   0.125   0.121   0.117   0.114   0.120   0.122   0.119   0.119   0.120   0.116   0.115   0.117   0.119   0.115   0.116   0.122   0.123   0.119   0.123   0.122   0.125   0.124   0.127   0.125   0.122   0.121   0.116   0.118   0.116   0.111
   121.90    0.127   0.124   0.123   0.121   0.123   0.123   0.120   0.120   0.118   0.121   0.117   0.118   0.118   0.118   0.118   0.117   0.116   0.113   0.114   0.119   0.117   0.117   0.119   0.125   0.128   0.127   0.127   0.125   0.126   0.119   0.115   0.117   0.120   0.117   0.113
   117.25    0.126   0.125   0.123   0.121   0.124   0.128   0.126   0.122   0.119   0.118   0.118   0.119   0.117   0.119   0.117   0.121   0.115   0.116   0.116   0.124   0.120   0.117   0.119   0.123   0.124   0.125   0.123   0.124   0.126   0.118   0.117   0.116   0.120   0.120   0.118
   112.60    0.129   0.127   0.123   0.124   0.125   0.126   0.127   0.126   0.130   0.129   0.123   0.121   0.119   0.117   0.119   0.119   0.117   0.113   0.116   0.119   0.123   0.122   0.122   0.121   0.117   0.119   0.116   0.121   0.119   0.119   0.115   0.116   0.119   0.121   0.122
   107.95    0.122   0.124   0.127   0.132   0.127   0.126   0.129   0.129   0.126   0.126   0.123   0.121   0.120   0.120   0.119   0.116   0.119   0.113   0.115   0.119   0.126   0.120   0.121   0.123   0.122   0.110   0.116   0.118   0.119   0.120   0.115   0.117   0.117   0.120   0.121
   103.30    0.121   0.128   0.132   0.133   0.132   0.127   0.130   0.129   0.122   0.118   0.120   0.116   0.115   0.117   0.116   0.115   0.120   0.121   0.121   0.121   0.124   0.122   0.123   0.122   0.121   0.115   0.116   0.116   0.116   0.117   0.117   0.119   0.124   0.119   0.122
    98.65    0.124   0.129   0.125   0.131   0.134   0.126   0.128   0.130   0.125   0.114   0.117   0.116   0.113   0.120   0.121   0.115   0.121   0.115   0.120   0.122   0.124   0.119   0.120   0.123   0.123   0.123   0.121   0.118   0.114   0.116   0.116   0.116   0.122   0.120   0.116
    94.00    0.128   0.131   0.131   0.130   0.128   0.125   0.132   0.133   0.122   0.120   0.121   0.112   0.116   0.118   0.115   0.113   0.120   0.119   0.120   0.120   0.119   0.122   0.119   0.118   0.123   0.123   0.121   0.116   0.115   0.115   0.111   0.112   0.112   0.117   0.114
    89.35    0.126   0.125   0.130   0.133   0.129   0.126   0.130   0.128   0.127   0.125   0.117   0.113   0.117   0.118   0.119   0.113   0.116   0.120   0.120   0.118   0.124   0.119   0.114   0.118   0.120   0.119   0.112   0.112   0.117   0.121   0.115   0.114   0.113   0.114   0.114
    84.70    0.124   0.119   0.125   0.129   0.128   0.127   0.127   0.128   0.126   0.123   0.121   0.118   0.116   0.118   0.119   0.116   0.116   0.118   0.121   0.124   0.122   0.117   0.115   0.119   0.119   0.114   0.107   0.112   0.113   0.119   0.112   0.111   0.112   0.114   0.115
    80.05    0.126   0.122   0.129   0.131   0.132   0.128   0.123   0.121   0.125   0.123   0.117   0.119   0.113   0.115   0.114   0.115   0.114   0.119   0.123   0.121   0.121   0.119   0.117   0.115   0.115   0.111   0.111   0.111   0.112   0.115   0.114   0.114   0.112   0.113   0.115
    75.40    0.127   0.129   0.128   0.129   0.128   0.125   0.125   0.118   0.119   0.118   0.116   0.116   0.114   0.118   0.119   0.116   0.114   0.121   0.117   0.118   0.118   0.120   0.117   0.113   0.114   0.115   0.114   0.115   0.115   0.117   0.113   0.114   0.117   0.115   0.118
    70.75    0.128   0.125   0.125   0.126   0.126   0.124   0.117   0.117   0.115   0.113   0.115   0.115   0.115   0.120   0.120   0.119   0.117   0.117   0.122   0.120   0.115   0.119   0.117   0.117   0.114   0.113   0.113   0.114   0.116   0.115   0.116   0.115   0.114   0.115   0.113
    66.10    0.125   0.126   0.124   0.127   0.126   0.120   0.117   0.117   0.118   0.117   0.110   0.109   0.115   0.117   0.116   0.116   0.117   0.120   0.119   0.122   0.119   0.118   0.119   0.120   0.118   0.117   0.113   0.116   0.113   0.115   0.116   0.115   0.116   0.116   0.118
    61.45    0.124   0.124   0.124   0.129   0.123   0.124   0.123   0.121   0.117   0.120   0.117   0.113   0.118   0.121   0.114   0.111   0.115   0.120   0.121   0.120   0.121   0.119   0.116   0.117   0.117   0.116   0.119   0.116   0.114   0.114   0.113   0.118   0.117   0.114   0.116
    56.80    0.121   0.122   0.119   0.121   0.123   0.121   0.121   0.124   0.120   0.114   0.119   0.117   0.118   0.117   0.115   0.118   0.116   0.118   0.120   0.118   0.121   0.119   0.113   0.115   0.119   0.119   0.119   0.117   0.115   0.117   0.113   0.110   0.113   0.112   0.111
    52.15    0.124   0.119   0.119   0.119   0.122   0.124   0.124   0.127   0.121   0.122   0.118   0.119   0.115   0.116   0.121   0.120   0.116   0.116   0.116   0.115   0.116   0.115   0.116   0.108   0.116   0.121   0.116   0.120   0.116   0.114   0.114   0.112   0.111   0.114   0.116
    47.50    0.122   0.123   0.117   0.122   0.125   0.123   0.125   0.123   0.117   0.121   0.120   0.116   0.118   0.117   0.121   0.119   0.113   0.115   0.117   0.113   0.113   0.111   0.113   0.112   0.113   0.114   0.112   0.115   0.114   0.115   0.112   0.115   0.112   0.116   0.119
    42.85    0.121   0.126   0.124   0.125   0.125   0.119   0.119   0.120   0.117   0.121   0.121   0.120   0.117   0.118   0.122   0.120   0.114   0.112   0.116   0.114   0.110   0.111   0.111   0.115   0.109   0.109   0.111   0.116   0.115   0.113   0.112   0.110   0.113   0.112   0.115
    38.20    0.126   0.124   0.123   0.122   0.123   0.123   0.121   0.121   0.117   0.122   0.120   0.117   0.116   0.118   0.121   0.120   0.114   0.112   0.118   0.112   0.114   0.118   0.116   0.114   0.113   0.112   0.114   0.114   0.117   0.117   0.109   0.112   0.111   0.115   0.118
    33.55    0.122   0.120   0.120   0.121   0.123   0.123   0.113   0.115   0.120   0.119   0.117   0.120   0.117   0.121   0.121   0.116   0.113   0.112   0.115   0.116   0.116   0.116   0.119   0.115   0.118   0.113   0.109   0.114   0.115   0.113   0.116   0.116   0.114   0.111   0.122
    28.90    0.125   0.120   0.121   0.119   0.119   0.120   0.114   0.120   0.117   0.119   0.117   0.118   0.116   0.122   0.118   0.110   0.111   0.109   0.112   0.114   0.118   0.119   0.117   0.117   0.123   0.122   0.115   0.114   0.110   0.112   0.117   0.115   0.118   0.119   0.121
    24.25    0.121   0.122   0.118   0.120   0.121   0.120   0.121   0.119   0.120   0.121   0.117   0.120   0.117   0.114   0.116   0.113   0.111   0.112   0.109   0.115   0.116   0.117   0.121   0.120   0.120   0.122   0.116   0.116   0.117   0.115   0.117   0.117   0.120   0.121   0.121
    19.60    0.122   0.121   0.118   0.118   0.117   0.118   0.120   0.115   0.119   0.119   0.119   0.121   0.120   0.116   0.117   0.115   0.114   0.113   0.111   0.110   0.120   0.112   0.117   0.115   0.116   0.116   0.113   0.117   0.122   0.121   0.122   0.122   0.122   0.117   0.120
    14.95    0.121   0.122   0.118   0.120   0.118   0.112   0.113   0.112   0.114   0.114   0.119   0.120   0.118   0.117   0.117   0.117   0.114   0.112   0.114   0.116   0.119   0.116   0.117   0.118   0.116   0.114   0.115   0.117   0.121   0.125   0.125   0.123   0.116   0.122   0.122
    10.30    0.114   0.120   0.118   0.116   0.119   0.120   0.115   0.113   0.114   0.119   0.117   0.120   0.115   0.111   0.115   0.120   0.119   0.116   0.114   0.115   0.117   0.117   0.116   0.118   0.114   0.113   0.112   0.115   0.115   0.117   0.118   0.119   0.115   0.121   0.121
     5.65    0.118   0.117   0.122   0.121   0.117   0.118   0.115   0.116   0.112   0.117   0.112   0.116   0.116   0.116   0.118   0.116   0.117   0.114   0.120   0.118   0.117   0.115   0.116   0.120   0.112   0.113   0.115   0.114   0.114   0.111   0.113   0.114   0.117   0.115   0.118
     1.00    0.116   0.122   0.124   0.122   0.116   0.114   0.119   0.118   0.115   0.113   0.113   0.118   0.120   0.114   0.119   0.119   0.115   0.118   0.119   0.121   0.119   0.112   0.113   0.117   0.118   0.116   0.113   0.110   0.112   0.114   0.113   0.117   0.116   0.117   0.118

   Mean standard deviation across all grid points:
      u component:    0.260 m/s
      v component:    0.180 m/s
      w component:    0.119 m/s


U-component (X) statistics from the interpolated hub point:

   Mean =   9.9913 m/s
   TI   =   2.2664 %


Processing complete.  5575.3 CPU seconds used.
