
This summary file was generated by TurbSim (from OpenFAST-v3.5.3) on 20-Apr-2025 at 09:35:08.


Runtime Options:

**********  Random seed #1
    RANLUX  Type of random number generator
         F  Output binary HH turbulence parameters?
         F  Output formatted turbulence parameters?
         F  Output AeroDyn HH files?
         T  Output AeroDyn FF files?
         F  Output BLADED FF files?
         F  Output tower data?
         F  Output HAWC FF files?
         F  Output formatted FF files?
         T  Output coherent turbulence time step file?
 0 -  NONE  IEC turbulence models scaled to exact specified standard deviation


Turbine/Model Specifications:

        37  Vertical grid-point matrix dimension
        35  Horizontal grid-point matrix dimension
     0.250  Time step [seconds]
   900.000  Analysis time [seconds]
   900.000  Usable output time [seconds]
    89.350  Hub height [m]
   167.400  Grid height [m]
   158.100  Grid width [m]
     0.000  Vertical flow angle [degrees]
     0.000  Horizontal flow angle [degrees]


Meteorological Boundary Conditions:

    TIMESR  User-input time series spectral model
       N/A  IEC standard
       N/A  IEC turbulence characteristic
       N/A  IEC turbulence type
       N/A  IEC Extreme Turbulence Model (ETM) "c" parameter [m/s]
       PL   Wind profile type
    90.000  Reference height [m]
    10.000  Reference wind speed [m/s]
       N/A  Jet height [m]
     0.120  Power law exponent
     0.030  Surface roughness length [m]


Non-IEC Meteorological Boundary Conditions:

    45.000  Site latitude [degrees]
     0.050  Gradient Richardson number
     0.480  Friction or shear velocity [m/s]
       N/A  Mixing layer depth [m]
       N/A  Mean hub u'w' Reynolds stress
       N/A  Mean hub u'v' Reynolds stress
       N/A  Mean hub v'w' Reynolds stress


Spatial Coherence Models:

       IEC  u-component coherence model
       IEC  v-component coherence model
       IEC  w-component coherence model
(   12.000, 0.353E-03)  u-component coherence parameters
(   12.000, 0.353E-03)  v-component coherence parameters
(   12.000, 0.353E-03)  w-component coherence parameters
       N/A  Coherence exponent


Coherent Turbulence Scaling Parameters:

.\EventData
            Name of the path containing the coherent turbulence data files
       les  Type of coherent turbulence data files
     1.000  Disturbance scale (ratio of wave height to rotor diameter)
     0.500  Fractional location of tower centerline from right
     0.500  Fractional location of hub height from the bottom of the dataset
    30.000  Minimum start time for coherent structures [seconds]


Profiles from User-Defined Time-Series Input:

  Height   Wind Speed   Horizontal Angle   Vertical Angle
   (m)        (m/s)          (deg)              (deg)    
  ------   ----------   ----------------   --------------
   94.00      10.00          -0.63               -0.00


You have requested that the following file(s) be generated:

   /kfs3/scratch/agupta/Projects/RL_Incubator/FinalRuns_Veer/Seed4/./FFSim_Seed4/Cond00_v10.0_PL0.12_TI5.0/Case2_wdirp04/Seed_7/TurbSim/HighT8.bts (AeroDyn/TurbSim full-field wind file)


Turbulence Simulation Scaling Parameter Summary:

   Turbulence model used                            =  User-input time series
   Gradient Richardson number                       =    0.050
   Monin-Obukhov (M-O) z/L parameter                =    0.067
   Monin-Obukhov (M-O) length scale                 = 1340.250 m
   Mean wind speed at hub height                    =    9.991 m/s

   Wind profile type                                =  Power law
   Power law exponent                               =    0.120
   Mean shear across rotor disk                     =    0.019 (m/s)/m
   Assumed rotor diameter                           =  158.100 m
   Surface roughness length                         =    0.030 m

   Nyquist frequency of turbulent wind field        =    2.000 Hz

   Number of time steps in the FFT                  =     3600
   Number of time steps output                      =     3600
   Number of points simulated                       =     1296


Mean Flow Angles:

   Vertical   =   0.0 degrees
   Horizontal =   0.0 degrees

Mean Wind Speed Profile:

   Height    Wind Speed   Horizontal Angle  Vertical Angle  U-comp (X)   V-comp (Y)   W-comp (Z)
     (m)        (m/s)         (degrees)       (degrees)       (m/s)        (m/s)        (m/s)   
   ------    ----------   ----------------  --------------  ----------   ----------   ----------
    168.4       10.78            0.00            0.00         10.78         0.00         0.00
    163.7       10.74            0.00            0.00         10.74         0.00         0.00
    159.1       10.71            0.00            0.00         10.71         0.00         0.00
    154.4       10.67            0.00            0.00         10.67         0.00         0.00
    149.8       10.63            0.00            0.00         10.63         0.00         0.00
    145.1       10.59            0.00            0.00         10.59         0.00         0.00
    140.5       10.55            0.00            0.00         10.55         0.00         0.00
    135.8       10.51            0.00            0.00         10.51         0.00         0.00
    131.2       10.46            0.00            0.00         10.46         0.00         0.00
    126.5       10.42            0.00            0.00         10.42         0.00         0.00
    121.9       10.37            0.00            0.00         10.37         0.00         0.00
    117.2       10.32            0.00            0.00         10.32         0.00         0.00
    112.6       10.27            0.00            0.00         10.27         0.00         0.00
    107.9       10.22            0.00            0.00         10.22         0.00         0.00
    103.3       10.17            0.00            0.00         10.17         0.00         0.00
     98.6       10.11            0.00            0.00         10.11         0.00         0.00
     94.0       10.05            0.00            0.00         10.05         0.00         0.00
     89.3        9.99            0.00            0.00          9.99         0.00         0.00
     84.7        9.93            0.00            0.00          9.93         0.00         0.00
     80.0        9.86            0.00            0.00          9.86         0.00         0.00
     75.4        9.79            0.00            0.00          9.79         0.00         0.00
     70.7        9.72            0.00            0.00          9.72         0.00         0.00
     66.1        9.64            0.00            0.00          9.64         0.00         0.00
     61.4        9.55            0.00            0.00          9.55         0.00         0.00
     56.8        9.46            0.00            0.00          9.46         0.00         0.00
     52.1        9.37            0.00            0.00          9.37         0.00         0.00
     47.5        9.26            0.00            0.00          9.26         0.00         0.00
     42.8        9.15            0.00            0.00          9.15         0.00         0.00
     38.2        9.02            0.00            0.00          9.02         0.00         0.00
     33.5        8.88            0.00            0.00          8.88         0.00         0.00
     28.9        8.73            0.00            0.00          8.73         0.00         0.00
     24.2        8.54            0.00            0.00          8.54         0.00         0.00
     19.6        8.33            0.00            0.00          8.33         0.00         0.00
     14.9        8.06            0.00            0.00          8.06         0.00         0.00
     10.3        7.71            0.00            0.00          7.71         0.00         0.00
      5.6        7.17            0.00            0.00          7.17         0.00         0.00
      1.0        5.83            0.00            0.00          5.83         0.00         0.00


Harvested Random Seeds after Generation of the Random Numbers:

     65026800 K 1
            0 K 2


Hub-Height Simulated Turbulence Statistical Summary:

   Type of Wind        Min (m/s)   Mean (m/s)    Max (m/s)  Sigma (m/s)       TI (%)
   ----------------    ---------   ----------    ---------  -----------       ------
   Longitudinal (u)         8.61         9.99        11.46        0.477        4.776
   Lateral (v)             -1.18        -0.00         1.12        0.391        3.914
   Vertical (w)            -0.94         0.00         0.68        0.236        2.361
   U component              8.61         9.99        11.46        0.477        4.776
   V component             -1.18        -0.00         1.12        0.391        3.914
   W component             -0.94         0.00         0.68        0.236        2.361
   Horizontal (U&V)         8.62        10.00        11.47        0.479        4.786
   Total                    8.62        10.00        11.47        0.478        4.782

                       Min Reynolds     Mean Reynolds    Max Reynolds    Correlation
   Product             Stress (m/s)^2   Stress (m/s)^2   Stress (m/s)^2  Coefficient
   ----------------    --------------   --------------   --------------  -----------
   u'w'                     -0.612            -0.015             0.702        -0.133
   u'v'                     -1.050            -0.035             0.647        -0.185
   v'w'                     -0.527            -0.001             0.466        -0.008


   Friction Velocity (Ustar)  =      0.122 m/s
   Maximum Instantaneous TKE  =      1.233 (m/s)^2
   Maximum Instantaneous CTKE =      0.556 (m/s)^2


Grid Point Variance Summary:

   Y-coord  -79.05  -74.40  -69.75  -65.10  -60.45  -55.80  -51.15  -46.50  -41.85  -37.20  -32.55  -27.90  -23.25  -18.60  -13.95   -9.30   -4.65    0.00    4.65    9.30   13.95   18.60   23.25   27.90   32.55   37.20   41.85   46.50   51.15   55.80   60.45   65.10   69.75   74.40   79.05

   Height   Standard deviation at grid points for the u component:
   168.40    0.414   0.438   0.438   0.407   0.411   0.387   0.409   0.400   0.397   0.424   0.438   0.435   0.431   0.421   0.440   0.471   0.497   0.482   0.466   0.520   0.514   0.499   0.504   0.489   0.494   0.440   0.441   0.452   0.446   0.434   0.453   0.445   0.462   0.439   0.423
   163.75    0.422   0.428   0.442   0.426   0.392   0.403   0.408   0.430   0.394   0.416   0.432   0.428   0.416   0.436   0.460   0.496   0.459   0.490   0.523   0.508   0.511   0.533   0.536   0.486   0.446   0.471   0.459   0.456   0.464   0.469   0.469   0.449   0.462   0.435   0.419
   159.10    0.410   0.428   0.403   0.423   0.399   0.414   0.437   0.418   0.420   0.424   0.430   0.438   0.441   0.448   0.450   0.468   0.509   0.494   0.537   0.552   0.535   0.532   0.553   0.499   0.506   0.469   0.458   0.464   0.470   0.502   0.479   0.473   0.465   0.452   0.440
   154.45    0.417   0.422   0.401   0.425   0.434   0.458   0.453   0.468   0.433   0.450   0.456   0.454   0.476   0.458   0.484   0.458   0.475   0.498   0.502   0.521   0.531   0.530   0.546   0.551   0.516   0.494   0.483   0.478   0.498   0.499   0.487   0.493   0.450   0.438   0.413
   149.80    0.427   0.435   0.381   0.410   0.443   0.467   0.440   0.451   0.437   0.474   0.479   0.489   0.478   0.455   0.456   0.447   0.482   0.496   0.484   0.518   0.504   0.495   0.540   0.555   0.528   0.520   0.514   0.510   0.505   0.506   0.486   0.464   0.459   0.460   0.437
   145.15    0.447   0.408   0.397   0.426   0.430   0.438   0.437   0.418   0.436   0.457   0.476   0.479   0.451   0.409   0.396   0.424   0.437   0.452   0.505   0.534   0.523   0.526   0.552   0.527   0.541   0.518   0.557   0.518   0.504   0.500   0.525   0.511   0.493   0.517   0.485
   140.50    0.417   0.435   0.393   0.409   0.427   0.406   0.421   0.415   0.439   0.445   0.452   0.478   0.450   0.440   0.422   0.412   0.415   0.432   0.507   0.541   0.530   0.509   0.512   0.528   0.510   0.556   0.561   0.528   0.536   0.550   0.522   0.530   0.506   0.517   0.517
   135.85    0.418   0.403   0.407   0.422   0.411   0.397   0.425   0.449   0.429   0.463   0.475   0.461   0.462   0.468   0.450   0.405   0.425   0.467   0.470   0.517   0.536   0.518   0.486   0.493   0.522   0.531   0.563   0.554   0.562   0.535   0.524   0.531   0.503   0.544   0.517
   131.20    0.417   0.395   0.428   0.438   0.430   0.395   0.392   0.416   0.424   0.452   0.445   0.459   0.434   0.448   0.442   0.430   0.427   0.445   0.505   0.513   0.505   0.528   0.525   0.512   0.528   0.550   0.531   0.547   0.541   0.518   0.521   0.528   0.491   0.522   0.527
   126.55    0.437   0.433   0.418   0.419   0.424   0.399   0.399   0.431   0.406   0.419   0.419   0.426   0.422   0.431   0.423   0.433   0.437   0.476   0.477   0.530   0.551   0.555   0.550   0.540   0.563   0.595   0.563   0.536   0.579   0.564   0.528   0.537   0.501   0.524   0.512
   121.90    0.454   0.456   0.434   0.411   0.447   0.424   0.426   0.445   0.420   0.390   0.415   0.457   0.427   0.452   0.427   0.465   0.443   0.483   0.487   0.504   0.533   0.514   0.569   0.564   0.613   0.603   0.586   0.580   0.554   0.582   0.555   0.527   0.513   0.505   0.530
   117.25    0.483   0.481   0.447   0.478   0.443   0.461   0.451   0.454   0.466   0.422   0.439   0.433   0.436   0.428   0.450   0.449   0.448   0.457   0.459   0.499   0.477   0.537   0.544   0.553   0.580   0.588   0.560   0.551   0.569   0.555   0.572   0.568   0.538   0.500   0.526
   112.60    0.474   0.476   0.484   0.491   0.467   0.463   0.475   0.496   0.459   0.443   0.428   0.451   0.459   0.440   0.434   0.451   0.419   0.467   0.479   0.468   0.496   0.520   0.511   0.531   0.557   0.555   0.555   0.544   0.556   0.522   0.537   0.547   0.557   0.509   0.540
   107.95    0.473   0.485   0.482   0.470   0.481   0.463   0.469   0.489   0.473   0.482   0.448   0.448   0.436   0.449   0.437   0.425   0.444   0.466   0.474   0.476   0.472   0.474   0.511   0.515   0.549   0.553   0.565   0.528   0.533   0.549   0.529   0.548   0.548   0.531   0.488
   103.30    0.483   0.465   0.464   0.488   0.471   0.468   0.440   0.457   0.473   0.476   0.456   0.453   0.432   0.454   0.456   0.452   0.453   0.451   0.441   0.431   0.489   0.517   0.532   0.522   0.542   0.527   0.529   0.524   0.546   0.507   0.516   0.487   0.515   0.514   0.515
    98.65    0.499   0.500   0.463   0.451   0.459   0.456   0.448   0.484   0.498   0.467   0.447   0.450   0.440   0.456   0.423   0.441   0.435   0.424   0.446   0.497   0.505   0.488   0.508   0.481   0.479   0.486   0.485   0.511   0.509   0.504   0.500   0.478   0.492   0.514   0.513
    94.00    0.542   0.513   0.475   0.475   0.477   0.462   0.460   0.468   0.506   0.496   0.449   0.477   0.469   0.465   0.429   0.419   0.449   0.478   0.466   0.491   0.504   0.491   0.468   0.446   0.442   0.426   0.473   0.475   0.495   0.497   0.521   0.483   0.481   0.510   0.474
    89.35    0.516   0.539   0.503   0.503   0.469   0.481   0.469   0.480   0.488   0.475   0.453   0.473   0.462   0.464   0.458   0.429   0.450   0.477   0.461   0.457   0.492   0.481   0.447   0.436   0.429   0.446   0.463   0.502   0.499   0.502   0.528   0.502   0.518   0.499   0.508
    84.70    0.550   0.545   0.544   0.501   0.489   0.509   0.507   0.508   0.463   0.474   0.438   0.460   0.442   0.443   0.428   0.431   0.442   0.449   0.468   0.461   0.460   0.486   0.451   0.437   0.434   0.455   0.464   0.471   0.474   0.506   0.492   0.496   0.522   0.523   0.528
    80.05    0.524   0.533   0.525   0.520   0.483   0.508   0.502   0.506   0.457   0.462   0.435   0.456   0.461   0.443   0.433   0.437   0.444   0.468   0.445   0.439   0.465   0.473   0.446   0.451   0.445   0.480   0.484   0.483   0.523   0.504   0.518   0.497   0.515   0.526   0.508
    75.40    0.542   0.521   0.523   0.503   0.489   0.522   0.496   0.508   0.480   0.469   0.455   0.437   0.473   0.444   0.432   0.433   0.459   0.453   0.453   0.433   0.429   0.452   0.435   0.458   0.445   0.476   0.497   0.519   0.517   0.498   0.504   0.526   0.517   0.505   0.481
    70.75    0.544   0.572   0.513   0.490   0.502   0.509   0.513   0.489   0.503   0.494   0.495   0.484   0.485   0.455   0.483   0.465   0.457   0.448   0.453   0.437   0.462   0.483   0.460   0.460   0.472   0.513   0.490   0.476   0.513   0.514   0.495   0.489   0.523   0.511   0.502
    66.10    0.560   0.543   0.532   0.500   0.491   0.497   0.482   0.488   0.500   0.491   0.497   0.507   0.471   0.490   0.497   0.505   0.501   0.494   0.472   0.468   0.472   0.472   0.472   0.503   0.497   0.501   0.474   0.489   0.494   0.510   0.483   0.483   0.494   0.541   0.521
    61.45    0.548   0.538   0.539   0.523   0.524   0.494   0.512   0.506   0.471   0.480   0.494   0.478   0.471   0.500   0.527   0.513   0.509   0.470   0.467   0.471   0.472   0.461   0.485   0.491   0.478   0.473   0.457   0.474   0.465   0.489   0.529   0.527   0.533   0.530   0.513
    56.80    0.554   0.529   0.532   0.518   0.494   0.485   0.482   0.499   0.478   0.468   0.470   0.469   0.479   0.479   0.482   0.477   0.471   0.475   0.491   0.490   0.447   0.442   0.470   0.469   0.480   0.507   0.486   0.472   0.455   0.470   0.521   0.536   0.554   0.520   0.505
    52.15    0.521   0.523   0.519   0.501   0.495   0.475   0.489   0.499   0.472   0.488   0.465   0.476   0.480   0.440   0.448   0.426   0.422   0.451   0.477   0.453   0.440   0.429   0.479   0.450   0.459   0.503   0.513   0.504   0.462   0.487   0.531   0.537   0.568   0.526   0.535
    47.50    0.523   0.506   0.536   0.519   0.531   0.479   0.489   0.502   0.491   0.481   0.478   0.459   0.455   0.451   0.416   0.396   0.412   0.433   0.453   0.440   0.441   0.452   0.456   0.466   0.501   0.501   0.523   0.492   0.488   0.509   0.515   0.547   0.552   0.555   0.569
    42.85    0.542   0.514   0.535   0.528   0.495   0.509   0.486   0.500   0.493   0.508   0.502   0.494   0.467   0.464   0.424   0.418   0.403   0.404   0.438   0.424   0.469   0.474   0.451   0.450   0.488   0.511   0.494   0.477   0.503   0.470   0.517   0.522   0.541   0.575   0.560
    38.20    0.532   0.529   0.543   0.520   0.498   0.505   0.489   0.482   0.489   0.500   0.486   0.463   0.461   0.437   0.462   0.448   0.439   0.436   0.420   0.436   0.478   0.478   0.468   0.469   0.487   0.484   0.502   0.508   0.466   0.480   0.476   0.510   0.499   0.551   0.561
    33.55    0.558   0.544   0.551   0.501   0.510   0.530   0.553   0.510   0.488   0.462   0.477   0.459   0.470   0.429   0.440   0.435   0.418   0.442   0.462   0.466   0.485   0.477   0.494   0.493   0.513   0.507   0.556   0.521   0.478   0.478   0.489   0.497   0.497   0.553   0.564
    28.90    0.555   0.557   0.561   0.520   0.527   0.531   0.520   0.525   0.495   0.480   0.495   0.464   0.442   0.439   0.449   0.449   0.465   0.448   0.479   0.459   0.467   0.494   0.466   0.486   0.509   0.533   0.531   0.525   0.499   0.492   0.525   0.502   0.519   0.546   0.550
    24.25    0.544   0.560   0.539   0.541   0.532   0.498   0.485   0.496   0.481   0.487   0.498   0.468   0.414   0.425   0.413   0.476   0.490   0.493   0.457   0.450   0.470   0.457   0.466   0.473   0.490   0.509   0.491   0.489   0.488   0.520   0.507   0.528   0.524   0.532   0.563
    19.60    0.570   0.575   0.551   0.537   0.512   0.503   0.499   0.460   0.462   0.479   0.463   0.449   0.415   0.415   0.411   0.463   0.498   0.493   0.467   0.476   0.476   0.467   0.456   0.453   0.446   0.487   0.505   0.480   0.517   0.523   0.507   0.531   0.553   0.534   0.556
    14.95    0.550   0.545   0.542   0.564   0.541   0.491   0.458   0.435   0.440   0.418   0.419   0.387   0.406   0.410   0.418   0.463   0.493   0.497   0.480   0.478   0.439   0.438   0.430   0.436   0.446   0.484   0.499   0.508   0.495   0.532   0.560   0.533   0.562   0.538   0.541
    10.30    0.536   0.516   0.543   0.540   0.559   0.528   0.474   0.438   0.439   0.422   0.385   0.390   0.409   0.407   0.415   0.437   0.459   0.448   0.478   0.464   0.411   0.426   0.436   0.451   0.468   0.467   0.471   0.472   0.490   0.544   0.560   0.567   0.538   0.568   0.567
     5.65    0.521   0.490   0.518   0.555   0.552   0.529   0.510   0.481   0.449   0.417   0.420   0.401   0.392   0.395   0.389   0.393   0.429   0.458   0.461   0.443   0.405   0.429   0.445   0.460   0.460   0.439   0.483   0.472   0.484   0.514   0.559   0.549   0.553   0.581   0.576
     1.00    0.494   0.475   0.492   0.512   0.531   0.558   0.517   0.463   0.441   0.415   0.432   0.406   0.378   0.377   0.376   0.405   0.433   0.451   0.433   0.430   0.453   0.432   0.419   0.444   0.464   0.465   0.488   0.465   0.486   0.518   0.547   0.526   0.552   0.543   0.572

   Height   Standard deviation at grid points for the v component:
   168.40    0.410   0.411   0.404   0.414   0.412   0.409   0.422   0.429   0.411   0.412   0.413   0.424   0.433   0.403   0.403   0.411   0.417   0.422   0.435   0.410   0.403   0.386   0.395   0.393   0.386   0.367   0.394   0.407   0.428   0.444   0.445   0.436   0.447   0.436   0.393
   163.75    0.406   0.384   0.390   0.399   0.417   0.422   0.420   0.424   0.407   0.398   0.427   0.418   0.418   0.426   0.408   0.433   0.427   0.424   0.417   0.414   0.404   0.389   0.397   0.384   0.397   0.387   0.385   0.395   0.411   0.452   0.454   0.457   0.437   0.440   0.428
   159.10    0.392   0.380   0.375   0.372   0.403   0.402   0.414   0.417   0.419   0.393   0.403   0.408   0.416   0.394   0.407   0.433   0.445   0.431   0.433   0.408   0.419   0.406   0.419   0.427   0.421   0.416   0.407   0.391   0.406   0.438   0.439   0.453   0.462   0.447   0.432
   154.45    0.398   0.384   0.389   0.399   0.391   0.389   0.395   0.408   0.397   0.403   0.397   0.416   0.405   0.392   0.408   0.435   0.456   0.455   0.441   0.411   0.407   0.412   0.404   0.420   0.442   0.421   0.423   0.405   0.414   0.431   0.447   0.445   0.446   0.413   0.430
   149.80    0.385   0.392   0.388   0.383   0.402   0.372   0.386   0.403   0.394   0.400   0.409   0.410   0.407   0.407   0.423   0.449   0.450   0.442   0.438   0.413   0.440   0.421   0.409   0.424   0.433   0.415   0.407   0.406   0.414   0.422   0.420   0.425   0.447   0.456   0.440
   145.15    0.379   0.380   0.378   0.376   0.372   0.358   0.381   0.394   0.394   0.394   0.416   0.425   0.422   0.427   0.434   0.435   0.441   0.445   0.420   0.422   0.425   0.415   0.422   0.440   0.428   0.401   0.391   0.404   0.399   0.414   0.411   0.427   0.436   0.469   0.445
   140.50    0.393   0.382   0.388   0.376   0.364   0.370   0.387   0.400   0.422   0.411   0.420   0.425   0.432   0.427   0.446   0.446   0.439   0.433   0.418   0.408   0.424   0.431   0.425   0.424   0.417   0.425   0.415   0.413   0.416   0.427   0.427   0.422   0.428   0.455   0.449
   135.85    0.399   0.412   0.392   0.372   0.370   0.372   0.381   0.393   0.407   0.413   0.420   0.436   0.430   0.427   0.430   0.428   0.411   0.414   0.411   0.412   0.410   0.424   0.438   0.415   0.403   0.397   0.413   0.421   0.408   0.431   0.424   0.409   0.428   0.460   0.433
   131.20    0.394   0.395   0.370   0.380   0.404   0.392   0.394   0.385   0.378   0.413   0.431   0.432   0.435   0.435   0.422   0.431   0.413   0.400   0.405   0.420   0.421   0.407   0.421   0.413   0.405   0.394   0.400   0.403   0.410   0.412   0.418   0.414   0.422   0.450   0.422
   126.55    0.389   0.382   0.383   0.384   0.387   0.394   0.388   0.391   0.395   0.397   0.435   0.445   0.453   0.423   0.404   0.398   0.416   0.410   0.427   0.424   0.407   0.400   0.391   0.396   0.411   0.391   0.390   0.386   0.394   0.422   0.429   0.411   0.434   0.435   0.431
   121.90    0.385   0.390   0.383   0.399   0.412   0.401   0.399   0.387   0.409   0.438   0.432   0.440   0.433   0.429   0.405   0.422   0.410   0.431   0.402   0.412   0.415   0.405   0.397   0.392   0.393   0.391   0.387   0.373   0.383   0.410   0.417   0.424   0.442   0.425   0.448
   117.25    0.383   0.377   0.404   0.381   0.405   0.413   0.404   0.391   0.407   0.424   0.440   0.432   0.432   0.432   0.406   0.409   0.430   0.445   0.428   0.420   0.426   0.405   0.398   0.385   0.389   0.386   0.375   0.387   0.380   0.410   0.432   0.422   0.419   0.429   0.425
   112.60    0.384   0.379   0.393   0.385   0.400   0.423   0.425   0.422   0.430   0.426   0.443   0.447   0.426   0.415   0.422   0.428   0.432   0.433   0.409   0.427   0.426   0.420   0.403   0.406   0.423   0.427   0.397   0.394   0.400   0.417   0.422   0.411   0.424   0.428   0.426
   107.95    0.398   0.396   0.393   0.406   0.419   0.439   0.416   0.397   0.415   0.430   0.440   0.441   0.429   0.427   0.419   0.406   0.421   0.429   0.402   0.416   0.435   0.427   0.424   0.426   0.422   0.426   0.410   0.383   0.395   0.402   0.414   0.401   0.409   0.424   0.427
   103.30    0.402   0.391   0.392   0.393   0.408   0.413   0.411   0.384   0.404   0.433   0.422   0.414   0.435   0.419   0.404   0.393   0.400   0.415   0.402   0.413   0.427   0.431   0.409   0.412   0.426   0.444   0.427   0.391   0.390   0.396   0.418   0.412   0.412   0.426   0.421
    98.65    0.391   0.396   0.396   0.395   0.402   0.410   0.405   0.386   0.395   0.415   0.415   0.441   0.421   0.388   0.417   0.398   0.394   0.387   0.401   0.393   0.410   0.416   0.436   0.413   0.400   0.421   0.404   0.395   0.398   0.401   0.421   0.420   0.438   0.452   0.438
    94.00    0.376   0.382   0.399   0.393   0.393   0.403   0.372   0.367   0.388   0.411   0.419   0.431   0.422   0.404   0.393   0.387   0.403   0.396   0.405   0.399   0.401   0.422   0.424   0.408   0.432   0.407   0.417   0.385   0.401   0.417   0.415   0.409   0.430   0.445   0.451
    89.35    0.398   0.384   0.388   0.388   0.381   0.377   0.376   0.369   0.381   0.408   0.409   0.411   0.394   0.416   0.413   0.412   0.397   0.391   0.407   0.420   0.392   0.405   0.402   0.408   0.411   0.402   0.399   0.410   0.401   0.427   0.413   0.422   0.436   0.445   0.444
    84.70    0.385   0.370   0.374   0.375   0.388   0.390   0.407   0.386   0.391   0.402   0.392   0.382   0.408   0.427   0.405   0.391   0.389   0.385   0.400   0.420   0.415   0.406   0.402   0.398   0.384   0.389   0.403   0.396   0.400   0.415   0.418   0.414   0.429   0.451   0.439
    80.05    0.374   0.368   0.381   0.379   0.374   0.379   0.393   0.358   0.371   0.399   0.392   0.397   0.410   0.403   0.383   0.366   0.369   0.377   0.409   0.425   0.408   0.412   0.400   0.392   0.388   0.388   0.381   0.395   0.409   0.409   0.428   0.425   0.430   0.432   0.428
    75.40    0.376   0.386   0.376   0.391   0.380   0.362   0.367   0.358   0.372   0.385   0.401   0.400   0.395   0.386   0.363   0.374   0.362   0.381   0.412   0.428   0.413   0.414   0.403   0.412   0.381   0.405   0.389   0.390   0.393   0.419   0.419   0.439   0.454   0.453   0.417
    70.75    0.373   0.377   0.401   0.404   0.379   0.371   0.369   0.363   0.378   0.392   0.394   0.413   0.389   0.383   0.397   0.388   0.395   0.389   0.412   0.420   0.418   0.401   0.414   0.415   0.417   0.413   0.388   0.384   0.393   0.428   0.434   0.449   0.454   0.439   0.432
    66.10    0.400   0.394   0.386   0.394   0.386   0.363   0.352   0.359   0.364   0.375   0.396   0.408   0.380   0.384   0.410   0.408   0.410   0.393   0.412   0.409   0.428   0.413   0.421   0.409   0.413   0.402   0.403   0.402   0.419   0.420   0.431   0.456   0.432   0.429   0.407
    61.45    0.396   0.381   0.383   0.378   0.361   0.352   0.346   0.376   0.373   0.372   0.381   0.391   0.373   0.390   0.410   0.404   0.423   0.418   0.432   0.447   0.431   0.430   0.418   0.401   0.397   0.433   0.399   0.387   0.401   0.409   0.433   0.417   0.414   0.403   0.401
    56.80    0.381   0.398   0.392   0.376   0.377   0.373   0.376   0.389   0.383   0.385   0.374   0.370   0.374   0.391   0.422   0.420   0.420   0.419   0.432   0.439   0.417   0.413   0.392   0.398   0.418   0.414   0.398   0.370   0.380   0.407   0.429   0.421   0.411   0.380   0.391
    52.15    0.407   0.409   0.379   0.364   0.366   0.378   0.364   0.375   0.394   0.387   0.364   0.387   0.374   0.401   0.412   0.431   0.430   0.430   0.429   0.428   0.410   0.397   0.396   0.419   0.411   0.411   0.407   0.400   0.405   0.413   0.417   0.413   0.428   0.406   0.384
    47.50    0.398   0.393   0.384   0.383   0.373   0.360   0.374   0.385   0.368   0.368   0.379   0.383   0.383   0.395   0.416   0.430   0.439   0.440   0.424   0.423   0.420   0.414   0.422   0.414   0.439   0.453   0.433   0.406   0.407   0.392   0.402   0.420   0.417   0.402   0.408
    42.85    0.427   0.410   0.403   0.389   0.352   0.362   0.364   0.352   0.370   0.374   0.387   0.375   0.377   0.390   0.396   0.421   0.424   0.418   0.418   0.434   0.409   0.418   0.397   0.409   0.433   0.451   0.429   0.410   0.412   0.404   0.406   0.408   0.379   0.394   0.406
    38.20    0.418   0.407   0.392   0.375   0.376   0.362   0.361   0.381   0.349   0.362   0.362   0.362   0.378   0.386   0.387   0.410   0.401   0.421   0.418   0.435   0.434   0.438   0.417   0.421   0.423   0.418   0.427   0.416   0.418   0.405   0.409   0.405   0.376   0.389   0.378
    33.55    0.428   0.409   0.381   0.381   0.381   0.376   0.386   0.375   0.364   0.360   0.351   0.354   0.383   0.398   0.406   0.401   0.395   0.414   0.424   0.438   0.442   0.434   0.405   0.386   0.387   0.394   0.403   0.415   0.410   0.381   0.417   0.398   0.388   0.381   0.388
    28.90    0.411   0.400   0.376   0.378   0.365   0.364   0.365   0.386   0.358   0.367   0.373   0.380   0.368   0.402   0.401   0.387   0.376   0.396   0.409   0.422   0.415   0.398   0.395   0.371   0.372   0.383   0.408   0.407   0.421   0.432   0.424   0.403   0.384   0.401   0.422
    24.25    0.420   0.411   0.396   0.382   0.371   0.361   0.379   0.400   0.382   0.384   0.384   0.378   0.373   0.396   0.389   0.382   0.369   0.391   0.400   0.399   0.390   0.386   0.410   0.388   0.351   0.375   0.385   0.406   0.421   0.417   0.423   0.407   0.388   0.393   0.419
    19.60    0.434   0.399   0.406   0.409   0.369   0.382   0.404   0.399   0.385   0.394   0.384   0.388   0.381   0.386   0.388   0.368   0.384   0.380   0.365   0.367   0.372   0.365   0.386   0.388   0.365   0.388   0.402   0.414   0.417   0.414   0.410   0.398   0.388   0.392   0.400
    14.95    0.425   0.401   0.393   0.396   0.379   0.379   0.399   0.390   0.391   0.392   0.398   0.398   0.403   0.387   0.377   0.384   0.380   0.370   0.377   0.347   0.362   0.346   0.360   0.393   0.384   0.396   0.401   0.394   0.414   0.407   0.408   0.400   0.405   0.397   0.393
    10.30    0.418   0.423   0.386   0.376   0.380   0.384   0.397   0.402   0.410   0.398   0.405   0.399   0.390   0.409   0.391   0.386   0.389   0.388   0.377   0.357   0.349   0.355   0.362   0.389   0.420   0.405   0.411   0.388   0.391   0.395   0.403   0.426   0.417   0.427   0.414
     5.65    0.440   0.411   0.373   0.374   0.369   0.384   0.410   0.392   0.391   0.396   0.402   0.431   0.413   0.413   0.423   0.403   0.382   0.370   0.367   0.351   0.344   0.349   0.365   0.391   0.398   0.399   0.380   0.382   0.391   0.410   0.404   0.420   0.422   0.418   0.423
     1.00    0.427   0.427   0.388   0.397   0.399   0.423   0.393   0.394   0.401   0.428   0.413   0.406   0.419   0.417   0.395   0.403   0.403   0.367   0.354   0.349   0.367   0.343   0.365   0.387   0.382   0.389   0.395   0.390   0.404   0.408   0.440   0.423   0.420   0.411   0.410

   Height   Standard deviation at grid points for the w component:
   168.40    0.246   0.241   0.248   0.244   0.242   0.240   0.244   0.238   0.240   0.244   0.250   0.240   0.244   0.247   0.244   0.242   0.227   0.236   0.229   0.227   0.223   0.230   0.231   0.240   0.231   0.234   0.222   0.231   0.236   0.240   0.242   0.238   0.241   0.240   0.232
   163.75    0.247   0.243   0.240   0.235   0.237   0.237   0.245   0.240   0.251   0.248   0.243   0.239   0.244   0.248   0.238   0.235   0.236   0.230   0.230   0.235   0.231   0.230   0.234   0.238   0.234   0.230   0.223   0.233   0.238   0.238   0.239   0.237   0.243   0.245   0.232
   159.10    0.246   0.241   0.240   0.236   0.232   0.238   0.241   0.238   0.240   0.237   0.235   0.234   0.241   0.236   0.241   0.231   0.223   0.228   0.231   0.233   0.230   0.229   0.230   0.237   0.234   0.229   0.233   0.242   0.237   0.242   0.236   0.245   0.247   0.240   0.234
   154.45    0.240   0.242   0.234   0.233   0.229   0.239   0.238   0.244   0.239   0.232   0.228   0.234   0.239   0.234   0.243   0.233   0.224   0.226   0.228   0.229   0.226   0.228   0.230   0.235   0.241   0.236   0.239   0.235   0.236   0.245   0.245   0.243   0.247   0.237   0.239
   149.80    0.233   0.237   0.237   0.236   0.233   0.230   0.234   0.239   0.235   0.233   0.232   0.230   0.235   0.231   0.235   0.226   0.228   0.224   0.222   0.233   0.227   0.227   0.232   0.236   0.236   0.240   0.235   0.239   0.240   0.246   0.246   0.245   0.247   0.235   0.246
   145.15    0.235   0.233   0.237   0.241   0.242   0.242   0.232   0.237   0.231   0.235   0.237   0.229   0.236   0.240   0.235   0.233   0.234   0.231   0.230   0.222   0.225   0.225   0.229   0.231   0.229   0.233   0.231   0.227   0.231   0.232   0.245   0.240   0.248   0.243   0.237
   140.50    0.234   0.238   0.231   0.228   0.235   0.234   0.235   0.234   0.235   0.236   0.228   0.223   0.228   0.235   0.240   0.229   0.228   0.230   0.230   0.226   0.228   0.227   0.223   0.232   0.235   0.235   0.235   0.226   0.233   0.235   0.235   0.235   0.236   0.237   0.247
   135.85    0.223   0.230   0.232   0.231   0.229   0.234   0.230   0.227   0.232   0.232   0.233   0.233   0.227   0.223   0.228   0.232   0.227   0.228   0.228   0.229   0.235   0.232   0.228   0.230   0.227   0.231   0.232   0.227   0.236   0.234   0.232   0.241   0.247   0.239   0.236
   131.20    0.227   0.224   0.227   0.231   0.229   0.233   0.224   0.222   0.224   0.232   0.232   0.238   0.231   0.226   0.227   0.233   0.225   0.227   0.232   0.234   0.229   0.234   0.229   0.229   0.233   0.236   0.224   0.226   0.232   0.237   0.248   0.252   0.241   0.240   0.231
   126.55    0.229   0.231   0.230   0.230   0.227   0.227   0.216   0.222   0.227   0.237   0.239   0.239   0.228   0.227   0.233   0.228   0.224   0.234   0.234   0.229   0.230   0.232   0.233   0.235   0.236   0.236   0.231   0.231   0.234   0.240   0.245   0.247   0.246   0.240   0.237
   121.90    0.241   0.234   0.239   0.237   0.233   0.221   0.222   0.224   0.236   0.240   0.235   0.236   0.236   0.221   0.227   0.226   0.228   0.228   0.222   0.223   0.224   0.225   0.238   0.232   0.234   0.234   0.234   0.238   0.237   0.241   0.244   0.241   0.240   0.237   0.236
   117.25    0.246   0.239   0.238   0.239   0.233   0.226   0.223   0.221   0.232   0.231   0.235   0.229   0.230   0.224   0.224   0.229   0.218   0.210   0.220   0.223   0.227   0.237   0.235   0.233   0.227   0.233   0.235   0.236   0.239   0.240   0.241   0.245   0.232   0.228   0.237
   112.60    0.239   0.235   0.238   0.229   0.234   0.232   0.223   0.218   0.224   0.230   0.229   0.229   0.232   0.230   0.227   0.229   0.221   0.221   0.223   0.223   0.234   0.231   0.236   0.231   0.236   0.236   0.234   0.231   0.237   0.242   0.235   0.240   0.239   0.233   0.233
   107.95    0.235   0.237   0.237   0.235   0.236   0.234   0.229   0.222   0.226   0.224   0.235   0.238   0.225   0.223   0.219   0.225   0.227   0.220   0.220   0.225   0.228   0.231   0.237   0.232   0.236   0.237   0.234   0.229   0.238   0.240   0.236   0.231   0.235   0.229   0.232
   103.30    0.232   0.237   0.235   0.235   0.227   0.231   0.225   0.229   0.228   0.224   0.227   0.234   0.239   0.229   0.228   0.234   0.226   0.220   0.212   0.217   0.219   0.216   0.223   0.229   0.233   0.233   0.230   0.240   0.235   0.240   0.233   0.228   0.233   0.231   0.234
    98.65    0.229   0.228   0.221   0.233   0.233   0.232   0.226   0.226   0.223   0.234   0.230   0.232   0.228   0.227   0.231   0.231   0.235   0.222   0.220   0.214   0.224   0.226   0.225   0.225   0.226   0.235   0.231   0.230   0.234   0.238   0.232   0.228   0.231   0.226   0.233
    94.00    0.224   0.232   0.230   0.229   0.234   0.229   0.219   0.222   0.218   0.227   0.234   0.233   0.235   0.229   0.224   0.229   0.228   0.227   0.231   0.230   0.240   0.236   0.221   0.225   0.231   0.229   0.237   0.227   0.225   0.224   0.224   0.229   0.223   0.234   0.231
    89.35    0.228   0.232   0.236   0.234   0.227   0.230   0.227   0.219   0.226   0.224   0.229   0.229   0.237   0.237   0.229   0.230   0.224   0.236   0.228   0.246   0.238   0.229   0.231   0.238   0.236   0.228   0.224   0.231   0.225   0.228   0.229   0.230   0.233   0.229   0.226
    84.70    0.227   0.227   0.231   0.234   0.229   0.232   0.236   0.228   0.231   0.230   0.229   0.233   0.238   0.235   0.230   0.228   0.232   0.232   0.229   0.235   0.235   0.232   0.229   0.227   0.230   0.231   0.227   0.216   0.216   0.221   0.236   0.232   0.236   0.220   0.227
    80.05    0.232   0.228   0.221   0.224   0.223   0.220   0.230   0.234   0.228   0.225   0.227   0.225   0.228   0.233   0.227   0.228   0.226   0.231   0.231   0.236   0.238   0.228   0.235   0.229   0.233   0.235   0.221   0.222   0.220   0.224   0.232   0.235   0.229   0.228   0.231
    75.40    0.228   0.220   0.220   0.214   0.222   0.223   0.227   0.228   0.234   0.233   0.230   0.234   0.227   0.231   0.231   0.224   0.231   0.230   0.228   0.225   0.224   0.224   0.227   0.230   0.233   0.231   0.224   0.226   0.217   0.227   0.225   0.224   0.228   0.228   0.231
    70.75    0.230   0.227   0.233   0.222   0.217   0.220   0.225   0.232   0.232   0.229   0.232   0.225   0.224   0.226   0.229   0.226   0.234   0.228   0.223   0.222   0.217   0.220   0.221   0.227   0.230   0.227   0.235   0.224   0.215   0.225   0.236   0.234   0.226   0.229   0.232
    66.10    0.236   0.236   0.232   0.231   0.227   0.227   0.225   0.236   0.238   0.242   0.229   0.231   0.226   0.228   0.226   0.225   0.234   0.231   0.224   0.222   0.225   0.224   0.215   0.228   0.227   0.231   0.220   0.216   0.221   0.225   0.228   0.225   0.219   0.227   0.227
    61.45    0.227   0.236   0.232   0.231   0.225   0.227   0.223   0.235   0.232   0.235   0.222   0.227   0.227   0.224   0.222   0.222   0.226   0.222   0.225   0.232   0.222   0.222   0.228   0.235   0.232   0.229   0.225   0.220   0.222   0.227   0.230   0.221   0.220   0.222   0.228
    56.80    0.229   0.235   0.239   0.237   0.230   0.225   0.232   0.234   0.230   0.235   0.233   0.225   0.224   0.220   0.222   0.220   0.228   0.230   0.232   0.231   0.234   0.226   0.235   0.238   0.230   0.229   0.234   0.227   0.226   0.226   0.230   0.233   0.227   0.227   0.220
    52.15    0.232   0.232   0.232   0.240   0.233   0.228   0.238   0.234   0.239   0.239   0.233   0.227   0.217   0.229   0.228   0.226   0.228   0.229   0.226   0.232   0.231   0.235   0.229   0.237   0.235   0.234   0.240   0.229   0.227   0.229   0.223   0.225   0.225   0.227   0.223
    47.50    0.226   0.237   0.231   0.231   0.227   0.228   0.234   0.235   0.238   0.233   0.232   0.237   0.219   0.223   0.224   0.231   0.230   0.228   0.231   0.228   0.237   0.240   0.243   0.235   0.235   0.227   0.236   0.231   0.215   0.220   0.225   0.222   0.217   0.223   0.216
    42.85    0.238   0.232   0.227   0.231   0.225   0.229   0.238   0.234   0.235   0.241   0.232   0.239   0.233   0.228   0.224   0.230   0.224   0.231   0.233   0.233   0.229   0.236   0.243   0.232   0.226   0.226   0.222   0.223   0.214   0.225   0.222   0.223   0.224   0.235   0.230
    38.20    0.238   0.235   0.236   0.236   0.235   0.232   0.239   0.225   0.231   0.234   0.240   0.236   0.234   0.228   0.221   0.223   0.226   0.229   0.229   0.239   0.231   0.227   0.226   0.232   0.234   0.223   0.219   0.222   0.225   0.221   0.227   0.226   0.221   0.227   0.229
    33.55    0.236   0.231   0.235   0.231   0.238   0.227   0.231   0.224   0.227   0.239   0.234   0.229   0.229   0.223   0.224   0.228   0.217   0.224   0.229   0.233   0.232   0.228   0.230   0.232   0.232   0.221   0.222   0.225   0.222   0.225   0.233   0.223   0.222   0.227   0.230
    28.90    0.232   0.232   0.238   0.239   0.237   0.232   0.224   0.224   0.226   0.241   0.239   0.241   0.231   0.229   0.230   0.222   0.221   0.225   0.233   0.232   0.234   0.229   0.233   0.227   0.228   0.225   0.215   0.212   0.217   0.219   0.224   0.220   0.226   0.228   0.231
    24.25    0.233   0.237   0.239   0.235   0.240   0.233   0.229   0.234   0.234   0.242   0.239   0.234   0.236   0.231   0.238   0.230   0.229   0.226   0.237   0.235   0.232   0.224   0.228   0.223   0.223   0.218   0.214   0.212   0.215   0.217   0.224   0.226   0.226   0.233   0.228
    19.60    0.230   0.230   0.238   0.241   0.232   0.236   0.229   0.235   0.240   0.234   0.237   0.235   0.234   0.237   0.236   0.236   0.229   0.230   0.221   0.226   0.231   0.229   0.234   0.215   0.223   0.219   0.217   0.216   0.220   0.224   0.229   0.237   0.238   0.240   0.242
    14.95    0.233   0.239   0.243   0.240   0.232   0.232   0.227   0.230   0.231   0.234   0.235   0.231   0.227   0.232   0.232   0.230   0.223   0.227   0.223   0.227   0.223   0.221   0.223   0.231   0.226   0.221   0.216   0.224   0.221   0.228   0.241   0.233   0.228   0.236   0.240
    10.30    0.241   0.247   0.245   0.247   0.240   0.227   0.227   0.230   0.229   0.230   0.228   0.224   0.223   0.227   0.231   0.225   0.218   0.220   0.224   0.227   0.234   0.220   0.225   0.222   0.223   0.222   0.220   0.226   0.234   0.233   0.234   0.232   0.228   0.232   0.234
     5.65    0.240   0.242   0.246   0.240   0.241   0.224   0.229   0.224   0.225   0.228   0.237   0.231   0.230   0.218   0.222   0.217   0.222   0.220   0.222   0.235   0.236   0.236   0.227   0.222   0.222   0.225   0.225   0.227   0.240   0.231   0.237   0.228   0.230   0.230   0.234
     1.00    0.235   0.240   0.241   0.238   0.235   0.237   0.228   0.227   0.228   0.228   0.233   0.230   0.226   0.222   0.220   0.223   0.217   0.229   0.229   0.229   0.235   0.231   0.223   0.224   0.215   0.226   0.223   0.227   0.235   0.237   0.239   0.241   0.245   0.238   0.236

   Mean standard deviation across all grid points:
      u component:    0.482 m/s
      v component:    0.404 m/s
      w component:    0.231 m/s


U-component (X) statistics from the interpolated hub point:

   Mean =   9.9913 m/s
   TI   =   4.7760 %


Processing complete.  6168.3 CPU seconds used.
