
This summary file was generated by TurbSim (from OpenFAST-v3.5.3) on 20-Apr-2025 at 08:28:47.


Runtime Options:

**********  Random seed #1
    RANLUX  Type of random number generator
         F  Output binary HH turbulence parameters?
         F  Output formatted turbulence parameters?
         F  Output AeroDyn HH files?
         T  Output AeroDyn FF files?
         F  Output BLADED FF files?
         F  Output tower data?
         F  Output HAWC FF files?
         F  Output formatted FF files?
         T  Output coherent turbulence time step file?
 0 -  NONE  IEC turbulence models scaled to exact specified standard deviation


Turbine/Model Specifications:

        37  Vertical grid-point matrix dimension
        35  Horizontal grid-point matrix dimension
     0.250  Time step [seconds]
   900.000  Analysis time [seconds]
   900.000  Usable output time [seconds]
    89.350  Hub height [m]
   167.400  Grid height [m]
   158.100  Grid width [m]
     0.000  Vertical flow angle [degrees]
     0.000  Horizontal flow angle [degrees]


Meteorological Boundary Conditions:

    TIMESR  User-input time series spectral model
       N/A  IEC standard
       N/A  IEC turbulence characteristic
       N/A  IEC turbulence type
       N/A  IEC Extreme Turbulence Model (ETM) "c" parameter [m/s]
       PL   Wind profile type
    90.000  Reference height [m]
    10.000  Reference wind speed [m/s]
       N/A  Jet height [m]
     0.120  Power law exponent
     0.030  Surface roughness length [m]


Non-IEC Meteorological Boundary Conditions:

    45.000  Site latitude [degrees]
     0.050  Gradient Richardson number
     0.480  Friction or shear velocity [m/s]
       N/A  Mixing layer depth [m]
       N/A  Mean hub u'w' Reynolds stress
       N/A  Mean hub u'v' Reynolds stress
       N/A  Mean hub v'w' Reynolds stress


Spatial Coherence Models:

       IEC  u-component coherence model
       IEC  v-component coherence model
       IEC  w-component coherence model
(   12.000, 0.353E-03)  u-component coherence parameters
(   12.000, 0.353E-03)  v-component coherence parameters
(   12.000, 0.353E-03)  w-component coherence parameters
       N/A  Coherence exponent


Coherent Turbulence Scaling Parameters:

.\EventData
            Name of the path containing the coherent turbulence data files
       dns  Type of coherent turbulence data files
     1.000  Disturbance scale (ratio of wave height to rotor diameter)
     0.500  Fractional location of tower centerline from right
     0.500  Fractional location of hub height from the bottom of the dataset
    30.000  Minimum start time for coherent structures [seconds]


Profiles from User-Defined Time-Series Input:

  Height   Wind Speed   Horizontal Angle   Vertical Angle
   (m)        (m/s)          (deg)              (deg)    
  ------   ----------   ----------------   --------------
   94.00      10.00          -0.63               -0.00


You have requested that the following file(s) be generated:

   /kfs3/scratch/agupta/Projects/RL_Incubator/FinalRuns_Veer/Seed4/./FFSim_Seed4/Cond00_v10.0_PL0.12_TI3.0/Case2_wdirp04/Seed_3/TurbSim/HighT10.bts (AeroDyn/TurbSim full-field wind file)


Turbulence Simulation Scaling Parameter Summary:

   Turbulence model used                            =  User-input time series
   Gradient Richardson number                       =    0.050
   Monin-Obukhov (M-O) z/L parameter                =    0.067
   Monin-Obukhov (M-O) length scale                 = 1340.250 m
   Mean wind speed at hub height                    =    9.991 m/s

   Wind profile type                                =  Power law
   Power law exponent                               =    0.120
   Mean shear across rotor disk                     =    0.019 (m/s)/m
   Assumed rotor diameter                           =  158.100 m
   Surface roughness length                         =    0.030 m

   Nyquist frequency of turbulent wind field        =    2.000 Hz

   Number of time steps in the FFT                  =     3600
   Number of time steps output                      =     3600
   Number of points simulated                       =     1296


Mean Flow Angles:

   Vertical   =   0.0 degrees
   Horizontal =   0.0 degrees

Mean Wind Speed Profile:

   Height    Wind Speed   Horizontal Angle  Vertical Angle  U-comp (X)   V-comp (Y)   W-comp (Z)
     (m)        (m/s)         (degrees)       (degrees)       (m/s)        (m/s)        (m/s)   
   ------    ----------   ----------------  --------------  ----------   ----------   ----------
    168.4       10.78            0.00            0.00         10.78         0.00         0.00
    163.7       10.74            0.00            0.00         10.74         0.00         0.00
    159.1       10.71            0.00            0.00         10.71         0.00         0.00
    154.4       10.67            0.00            0.00         10.67         0.00         0.00
    149.8       10.63            0.00            0.00         10.63         0.00         0.00
    145.1       10.59            0.00            0.00         10.59         0.00         0.00
    140.5       10.55            0.00            0.00         10.55         0.00         0.00
    135.8       10.51            0.00            0.00         10.51         0.00         0.00
    131.2       10.46            0.00            0.00         10.46         0.00         0.00
    126.5       10.42            0.00            0.00         10.42         0.00         0.00
    121.9       10.37            0.00            0.00         10.37         0.00         0.00
    117.2       10.32            0.00            0.00         10.32         0.00         0.00
    112.6       10.27            0.00            0.00         10.27         0.00         0.00
    107.9       10.22            0.00            0.00         10.22         0.00         0.00
    103.3       10.17            0.00            0.00         10.17         0.00         0.00
     98.6       10.11            0.00            0.00         10.11         0.00         0.00
     94.0       10.05            0.00            0.00         10.05         0.00         0.00
     89.3        9.99            0.00            0.00          9.99         0.00         0.00
     84.7        9.93            0.00            0.00          9.93         0.00         0.00
     80.0        9.86            0.00            0.00          9.86         0.00         0.00
     75.4        9.79            0.00            0.00          9.79         0.00         0.00
     70.7        9.72            0.00            0.00          9.72         0.00         0.00
     66.1        9.64            0.00            0.00          9.64         0.00         0.00
     61.4        9.55            0.00            0.00          9.55         0.00         0.00
     56.8        9.46            0.00            0.00          9.46         0.00         0.00
     52.1        9.37            0.00            0.00          9.37         0.00         0.00
     47.5        9.26            0.00            0.00          9.26         0.00         0.00
     42.8        9.15            0.00            0.00          9.15         0.00         0.00
     38.2        9.02            0.00            0.00          9.02         0.00         0.00
     33.5        8.88            0.00            0.00          8.88         0.00         0.00
     28.9        8.73            0.00            0.00          8.73         0.00         0.00
     24.2        8.54            0.00            0.00          8.54         0.00         0.00
     19.6        8.33            0.00            0.00          8.33         0.00         0.00
     14.9        8.06            0.00            0.00          8.06         0.00         0.00
     10.3        7.71            0.00            0.00          7.71         0.00         0.00
      5.6        7.17            0.00            0.00          7.17         0.00         0.00
      1.0        5.83            0.00            0.00          5.83         0.00         0.00


Harvested Random Seeds after Generation of the Random Numbers:

     65026800 K 1
            0 K 2


Hub-Height Simulated Turbulence Statistical Summary:

   Type of Wind        Min (m/s)   Mean (m/s)    Max (m/s)  Sigma (m/s)       TI (%)
   ----------------    ---------   ----------    ---------  -----------       ------
   Longitudinal (u)         8.92         9.99        10.78        0.282        2.819
   Lateral (v)             -0.63         0.00         0.74        0.233        2.330
   Vertical (w)            -0.53        -0.00         0.46        0.135        1.356
   U component              8.92         9.99        10.78        0.282        2.819
   V component             -0.63         0.00         0.74        0.233        2.330
   W component             -0.53        -0.00         0.46        0.135        1.356
   Horizontal (U&V)         8.92         9.99        10.78        0.281        2.815
   Total                    8.92         9.99        10.78        0.281        2.816

                       Min Reynolds     Mean Reynolds    Max Reynolds    Correlation
   Product             Stress (m/s)^2   Stress (m/s)^2   Stress (m/s)^2  Coefficient
   ----------------    --------------   --------------   --------------  -----------
   u'w'                     -0.200             0.001             0.248         0.021
   u'v'                     -0.300             0.009             0.378         0.142
   v'w'                     -0.169            -0.000             0.229        -0.004


   Friction Velocity (Ustar)  =      0.028 m/s
   Maximum Instantaneous TKE  =      0.598 (m/s)^2
   Maximum Instantaneous CTKE =      0.195 (m/s)^2


Grid Point Variance Summary:

   Y-coord  -79.05  -74.40  -69.75  -65.10  -60.45  -55.80  -51.15  -46.50  -41.85  -37.20  -32.55  -27.90  -23.25  -18.60  -13.95   -9.30   -4.65    0.00    4.65    9.30   13.95   18.60   23.25   27.90   32.55   37.20   41.85   46.50   51.15   55.80   60.45   65.10   69.75   74.40   79.05

   Height   Standard deviation at grid points for the u component:
   168.40    0.259   0.258   0.254   0.288   0.288   0.302   0.315   0.307   0.297   0.288   0.296   0.300   0.302   0.306   0.299   0.280   0.286   0.298   0.283   0.284   0.292   0.299   0.304   0.318   0.293   0.299   0.305   0.301   0.303   0.302   0.306   0.305   0.319   0.318   0.330
   163.75    0.258   0.263   0.275   0.288   0.279   0.299   0.298   0.290   0.290   0.303   0.295   0.292   0.297   0.293   0.280   0.285   0.302   0.305   0.287   0.274   0.307   0.310   0.322   0.309   0.306   0.305   0.296   0.295   0.297   0.314   0.309   0.305   0.309   0.304   0.316
   159.10    0.269   0.250   0.259   0.275   0.278   0.294   0.290   0.282   0.290   0.307   0.292   0.284   0.316   0.294   0.296   0.287   0.294   0.302   0.284   0.294   0.306   0.300   0.318   0.320   0.301   0.307   0.311   0.297   0.296   0.294   0.305   0.311   0.300   0.308   0.297
   154.45    0.260   0.259   0.252   0.282   0.286   0.296   0.293   0.296   0.273   0.286   0.277   0.279   0.302   0.306   0.299   0.284   0.284   0.283   0.288   0.282   0.303   0.304   0.324   0.302   0.295   0.291   0.296   0.298   0.293   0.295   0.320   0.321   0.288   0.303   0.291
   149.80    0.261   0.270   0.247   0.263   0.278   0.271   0.278   0.264   0.247   0.260   0.275   0.255   0.278   0.286   0.309   0.288   0.288   0.275   0.281   0.276   0.294   0.309   0.313   0.304   0.288   0.277   0.280   0.291   0.286   0.307   0.320   0.323   0.298   0.296   0.298
   145.15    0.291   0.264   0.264   0.257   0.282   0.284   0.280   0.276   0.276   0.257   0.263   0.260   0.271   0.275   0.284   0.277   0.261   0.280   0.276   0.276   0.303   0.312   0.312   0.303   0.292   0.293   0.285   0.284   0.269   0.309   0.318   0.324   0.304   0.303   0.289
   140.50    0.315   0.291   0.293   0.275   0.282   0.269   0.276   0.282   0.270   0.260   0.259   0.247   0.258   0.267   0.267   0.260   0.261   0.284   0.294   0.302   0.311   0.311   0.317   0.293   0.285   0.300   0.296   0.282   0.274   0.301   0.294   0.303   0.315   0.308   0.278
   135.85    0.328   0.304   0.298   0.295   0.266   0.254   0.265   0.262   0.249   0.242   0.244   0.247   0.268   0.269   0.261   0.256   0.285   0.298   0.299   0.302   0.316   0.330   0.314   0.294   0.298   0.297   0.315   0.291   0.299   0.308   0.335   0.324   0.331   0.315   0.290
   131.20    0.321   0.300   0.296   0.269   0.274   0.270   0.259   0.260   0.254   0.245   0.232   0.251   0.266   0.263   0.268   0.281   0.297   0.290   0.296   0.307   0.302   0.333   0.336   0.322   0.312   0.324   0.319   0.322   0.306   0.323   0.328   0.308   0.304   0.296   0.291
   126.55    0.307   0.281   0.297   0.276   0.271   0.279   0.269   0.256   0.275   0.250   0.231   0.256   0.271   0.273   0.270   0.273   0.271   0.281   0.294   0.317   0.319   0.329   0.343   0.339   0.316   0.336   0.328   0.308   0.313   0.323   0.307   0.303   0.288   0.285   0.303
   121.90    0.300   0.297   0.308   0.279   0.284   0.278   0.265   0.274   0.289   0.259   0.250   0.262   0.261   0.272   0.282   0.262   0.274   0.270   0.300   0.322   0.330   0.329   0.338   0.323   0.334   0.329   0.327   0.322   0.325   0.308   0.301   0.314   0.306   0.293   0.296
   117.25    0.318   0.329   0.311   0.304   0.281   0.272   0.274   0.263   0.280   0.267   0.264   0.247   0.282   0.262   0.273   0.276   0.265   0.276   0.309   0.333   0.328   0.318   0.328   0.338   0.346   0.355   0.323   0.345   0.342   0.328   0.321   0.323   0.310   0.286   0.282
   112.60    0.321   0.318   0.293   0.301   0.295   0.267   0.269   0.266   0.275   0.267   0.262   0.256   0.264   0.280   0.274   0.269   0.274   0.287   0.307   0.336   0.303   0.300   0.323   0.336   0.342   0.336   0.336   0.330   0.318   0.328   0.328   0.328   0.308   0.285   0.283
   107.95    0.305   0.307   0.295   0.289   0.283   0.277   0.259   0.257   0.251   0.256   0.249   0.241   0.262   0.257   0.276   0.263   0.295   0.298   0.327   0.327   0.313   0.318   0.340   0.343   0.336   0.349   0.340   0.328   0.332   0.318   0.323   0.302   0.293   0.270   0.273
   103.30    0.282   0.290   0.269   0.281   0.276   0.262   0.257   0.257   0.247   0.234   0.228   0.253   0.250   0.271   0.245   0.263   0.293   0.300   0.326   0.331   0.318   0.328   0.313   0.316   0.329   0.336   0.347   0.327   0.325   0.326   0.299   0.298   0.275   0.277   0.289
    98.65    0.303   0.288   0.282   0.280   0.262   0.258   0.269   0.266   0.272   0.258   0.246   0.245   0.246   0.237   0.261   0.290   0.289   0.300   0.322   0.328   0.326   0.329   0.317   0.300   0.315   0.333   0.333   0.316   0.320   0.310   0.287   0.296   0.302   0.287   0.308
    94.00    0.299   0.296   0.305   0.287   0.275   0.263   0.285   0.282   0.269   0.265   0.249   0.264   0.239   0.241   0.261   0.292   0.280   0.288   0.291   0.303   0.322   0.341   0.326   0.311   0.319   0.329   0.331   0.344   0.339   0.313   0.288   0.269   0.296   0.312   0.309
    89.35    0.304   0.302   0.306   0.285   0.287   0.284   0.297   0.285   0.278   0.262   0.268   0.269   0.237   0.239   0.271   0.292   0.279   0.282   0.289   0.297   0.317   0.340   0.314   0.308   0.323   0.318   0.324   0.328   0.319   0.323   0.298   0.289   0.292   0.313   0.320
    84.70    0.299   0.298   0.294   0.293   0.275   0.291   0.303   0.300   0.282   0.265   0.265   0.250   0.251   0.262   0.278   0.281   0.282   0.276   0.284   0.306   0.311   0.329   0.315   0.309   0.328   0.325   0.324   0.320   0.294   0.322   0.303   0.291   0.310   0.311   0.310
    80.05    0.295   0.298   0.290   0.297   0.285   0.285   0.283   0.283   0.283   0.255   0.256   0.241   0.250   0.273   0.272   0.270   0.286   0.306   0.289   0.284   0.306   0.315   0.321   0.329   0.320   0.330   0.334   0.316   0.303   0.317   0.308   0.306   0.300   0.304   0.302
    75.40    0.301   0.290   0.303   0.292   0.283   0.283   0.284   0.278   0.289   0.254   0.256   0.251   0.255   0.268   0.274   0.268   0.307   0.315   0.319   0.305   0.303   0.300   0.311   0.301   0.303   0.334   0.329   0.333   0.309   0.306   0.311   0.308   0.312   0.300   0.288
    70.75    0.282   0.279   0.296   0.307   0.308   0.273   0.267   0.251   0.272   0.255   0.255   0.243   0.260   0.271   0.275   0.281   0.278   0.306   0.318   0.321   0.306   0.302   0.333   0.316   0.318   0.327   0.321   0.303   0.307   0.299   0.301   0.303   0.309   0.286   0.287
    66.10    0.273   0.282   0.300   0.298   0.305   0.292   0.281   0.275   0.267   0.248   0.244   0.244   0.265   0.289   0.291   0.285   0.289   0.298   0.317   0.324   0.341   0.328   0.338   0.326   0.316   0.329   0.323   0.311   0.306   0.296   0.286   0.297   0.299   0.289   0.280
    61.45    0.278   0.284   0.307   0.310   0.309   0.296   0.273   0.267   0.245   0.250   0.245   0.241   0.252   0.282   0.291   0.296   0.293   0.328   0.323   0.346   0.336   0.319   0.323   0.337   0.313   0.319   0.321   0.327   0.291   0.297   0.286   0.292   0.311   0.281   0.261
    56.80    0.303   0.283   0.310   0.331   0.310   0.300   0.264   0.248   0.266   0.241   0.247   0.243   0.239   0.243   0.278   0.295   0.305   0.307   0.307   0.327   0.331   0.349   0.326   0.329   0.323   0.331   0.334   0.321   0.322   0.286   0.275   0.304   0.301   0.282   0.268
    52.15    0.303   0.297   0.304   0.313   0.305   0.303   0.270   0.268   0.258   0.264   0.243   0.234   0.234   0.242   0.267   0.281   0.309   0.302   0.317   0.337   0.329   0.349   0.324   0.318   0.302   0.321   0.314   0.331   0.318   0.308   0.283   0.287   0.284   0.276   0.276
    47.50    0.297   0.283   0.297   0.303   0.293   0.289   0.306   0.290   0.286   0.254   0.245   0.246   0.240   0.248   0.251   0.269   0.297   0.301   0.326   0.322   0.325   0.323   0.308   0.304   0.302   0.310   0.309   0.309   0.294   0.293   0.294   0.290   0.275   0.279   0.282
    42.85    0.316   0.306   0.320   0.317   0.309   0.288   0.307   0.310   0.296   0.269   0.269   0.258   0.245   0.250   0.268   0.281   0.308   0.311   0.319   0.323   0.317   0.308   0.301   0.306   0.289   0.306   0.302   0.303   0.293   0.298   0.284   0.275   0.271   0.271   0.264
    38.20    0.313   0.305   0.316   0.307   0.315   0.322   0.327   0.307   0.305   0.302   0.290   0.280   0.269   0.260   0.271   0.283   0.306   0.306   0.330   0.304   0.325   0.308   0.310   0.313   0.317   0.306   0.313   0.306   0.300   0.290   0.291   0.261   0.273   0.268   0.249
    33.55    0.318   0.315   0.313   0.298   0.319   0.315   0.335   0.323   0.301   0.316   0.304   0.292   0.294   0.282   0.293   0.291   0.317   0.330   0.334   0.326   0.325   0.311   0.307   0.313   0.310   0.320   0.326   0.298   0.313   0.310   0.296   0.270   0.276   0.265   0.271
    28.90    0.317   0.300   0.303   0.311   0.313   0.320   0.337   0.334   0.317   0.318   0.295   0.292   0.302   0.312   0.291   0.296   0.325   0.313   0.334   0.329   0.304   0.302   0.307   0.323   0.322   0.329   0.339   0.325   0.339   0.308   0.293   0.292   0.264   0.257   0.272
    24.25    0.337   0.313   0.311   0.300   0.346   0.311   0.319   0.335   0.322   0.327   0.310   0.317   0.298   0.307   0.303   0.303   0.304   0.321   0.336   0.333   0.309   0.307   0.308   0.315   0.329   0.343   0.342   0.356   0.341   0.314   0.296   0.283   0.268   0.269   0.275
    19.60    0.325   0.305   0.317   0.339   0.326   0.321   0.329   0.320   0.327   0.331   0.334   0.333   0.318   0.310   0.318   0.312   0.316   0.329   0.337   0.317   0.317   0.328   0.326   0.321   0.333   0.352   0.352   0.342   0.341   0.306   0.291   0.292   0.283   0.279   0.295
    14.95    0.328   0.317   0.327   0.311   0.318   0.331   0.316   0.322   0.329   0.336   0.350   0.347   0.338   0.323   0.316   0.300   0.301   0.319   0.323   0.302   0.326   0.335   0.332   0.308   0.327   0.339   0.352   0.352   0.355   0.322   0.306   0.299   0.295   0.290   0.286
    10.30    0.328   0.306   0.307   0.307   0.327   0.327   0.333   0.322   0.324   0.328   0.348   0.333   0.325   0.316   0.317   0.297   0.309   0.312   0.314   0.312   0.325   0.333   0.316   0.313   0.324   0.336   0.344   0.357   0.347   0.336   0.321   0.302   0.284   0.303   0.300
     5.65    0.326   0.308   0.283   0.293   0.305   0.305   0.307   0.305   0.317   0.320   0.325   0.327   0.319   0.306   0.299   0.301   0.294   0.317   0.315   0.310   0.306   0.329   0.310   0.305   0.330   0.331   0.340   0.350   0.340   0.319   0.307   0.286   0.280   0.295   0.309
     1.00    0.306   0.314   0.288   0.286   0.285   0.303   0.298   0.295   0.302   0.298   0.307   0.320   0.306   0.309   0.278   0.289   0.289   0.299   0.300   0.280   0.298   0.317   0.294   0.307   0.329   0.324   0.331   0.321   0.310   0.289   0.292   0.277   0.284   0.287   0.281

   Height   Standard deviation at grid points for the v component:
   168.40    0.217   0.226   0.225   0.222   0.217   0.230   0.238   0.249   0.245   0.267   0.256   0.263   0.270   0.261   0.266   0.263   0.256   0.251   0.259   0.266   0.268   0.266   0.262   0.243   0.233   0.234   0.239   0.255   0.258   0.265   0.251   0.252   0.242   0.245   0.237
   163.75    0.234   0.220   0.226   0.224   0.226   0.242   0.250   0.260   0.259   0.262   0.254   0.267   0.267   0.265   0.270   0.270   0.266   0.260   0.279   0.281   0.284   0.276   0.251   0.240   0.234   0.242   0.253   0.266   0.271   0.270   0.256   0.243   0.228   0.242   0.245
   159.10    0.225   0.219   0.232   0.230   0.237   0.250   0.263   0.259   0.260   0.257   0.270   0.271   0.266   0.262   0.264   0.263   0.286   0.274   0.274   0.289   0.283   0.265   0.264   0.259   0.240   0.240   0.255   0.269   0.274   0.275   0.255   0.236   0.235   0.232   0.233
   154.45    0.235   0.232   0.230   0.237   0.240   0.240   0.251   0.256   0.260   0.272   0.268   0.261   0.264   0.273   0.275   0.276   0.291   0.276   0.293   0.289   0.280   0.275   0.255   0.257   0.241   0.251   0.248   0.264   0.266   0.265   0.247   0.242   0.229   0.224   0.227
   149.80    0.242   0.230   0.226   0.231   0.238   0.259   0.253   0.259   0.267   0.277   0.277   0.283   0.276   0.270   0.278   0.281   0.299   0.298   0.287   0.296   0.295   0.282   0.275   0.260   0.254   0.258   0.249   0.254   0.258   0.254   0.240   0.221   0.219   0.237   0.231
   145.15    0.259   0.239   0.233   0.233   0.258   0.258   0.255   0.270   0.280   0.268   0.281   0.289   0.272   0.285   0.281   0.296   0.309   0.294   0.303   0.294   0.298   0.278   0.281   0.264   0.252   0.253   0.257   0.257   0.255   0.245   0.237   0.237   0.222   0.233   0.227
   140.50    0.271   0.252   0.256   0.251   0.256   0.252   0.269   0.263   0.279   0.291   0.288   0.282   0.270   0.272   0.281   0.294   0.295   0.295   0.282   0.290   0.287   0.277   0.276   0.259   0.263   0.254   0.269   0.263   0.247   0.240   0.243   0.243   0.214   0.236   0.222
   135.85    0.259   0.269   0.276   0.257   0.259   0.249   0.272   0.263   0.263   0.282   0.277   0.284   0.269   0.270   0.272   0.275   0.279   0.278   0.277   0.285   0.272   0.286   0.276   0.253   0.264   0.265   0.263   0.256   0.247   0.230   0.238   0.235   0.220   0.218   0.212
   131.20    0.253   0.262   0.255   0.267   0.257   0.254   0.270   0.268   0.256   0.266   0.275   0.275   0.282   0.271   0.273   0.262   0.260   0.265   0.271   0.276   0.275   0.276   0.270   0.252   0.247   0.250   0.250   0.244   0.226   0.227   0.232   0.226   0.223   0.208   0.209
   126.55    0.258   0.255   0.261   0.265   0.264   0.242   0.252   0.246   0.259   0.252   0.259   0.273   0.255   0.253   0.267   0.260   0.254   0.262   0.264   0.272   0.266   0.256   0.256   0.259   0.253   0.246   0.250   0.243   0.233   0.230   0.225   0.212   0.215   0.210   0.217
   121.90    0.271   0.243   0.253   0.240   0.248   0.248   0.242   0.238   0.245   0.244   0.255   0.252   0.240   0.250   0.258   0.245   0.260   0.270   0.272   0.261   0.248   0.258   0.248   0.255   0.254   0.248   0.227   0.225   0.234   0.234   0.214   0.216   0.220   0.209   0.219
   117.25    0.251   0.246   0.246   0.239   0.245   0.242   0.239   0.240   0.244   0.244   0.249   0.251   0.241   0.249   0.257   0.253   0.244   0.257   0.252   0.249   0.251   0.254   0.242   0.259   0.246   0.231   0.227   0.217   0.225   0.232   0.222   0.213   0.215   0.206   0.202
   112.60    0.245   0.239   0.244   0.249   0.234   0.217   0.230   0.223   0.239   0.246   0.231   0.233   0.237   0.248   0.259   0.251   0.244   0.243   0.246   0.236   0.239   0.245   0.238   0.238   0.235   0.237   0.226   0.229   0.227   0.229   0.222   0.212   0.204   0.207   0.200
   107.95    0.249   0.251   0.249   0.252   0.248   0.240   0.230   0.227   0.221   0.245   0.240   0.237   0.238   0.245   0.246   0.254   0.232   0.240   0.243   0.236   0.245   0.246   0.233   0.231   0.227   0.233   0.225   0.225   0.230   0.230   0.220   0.220   0.208   0.211   0.208
   103.30    0.248   0.252   0.245   0.249   0.252   0.246   0.240   0.249   0.229   0.248   0.246   0.239   0.249   0.250   0.237   0.244   0.232   0.231   0.240   0.252   0.246   0.242   0.233   0.239   0.232   0.218   0.220   0.219   0.223   0.213   0.224   0.229   0.215   0.208   0.202
    98.65    0.260   0.257   0.241   0.240   0.234   0.241   0.233   0.242   0.236   0.241   0.241   0.250   0.241   0.238   0.240   0.241   0.233   0.222   0.241   0.250   0.246   0.231   0.240   0.230   0.236   0.226   0.211   0.221   0.221   0.216   0.217   0.221   0.229   0.217   0.217
    94.00    0.244   0.233   0.232   0.222   0.234   0.225   0.236   0.230   0.238   0.236   0.239   0.242   0.245   0.239   0.226   0.222   0.230   0.224   0.228   0.238   0.239   0.231   0.235   0.235   0.229   0.234   0.223   0.230   0.239   0.232   0.232   0.229   0.229   0.222   0.231
    89.35    0.224   0.214   0.208   0.211   0.223   0.219   0.228   0.215   0.220   0.224   0.229   0.239   0.238   0.243   0.227   0.210   0.221   0.233   0.235   0.226   0.234   0.234   0.227   0.226   0.229   0.234   0.232   0.231   0.226   0.229   0.230   0.226   0.230   0.225   0.224
    84.70    0.207   0.207   0.207   0.200   0.208   0.218   0.218   0.224   0.224   0.213   0.224   0.229   0.234   0.242   0.221   0.220   0.213   0.231   0.239   0.243   0.234   0.228   0.234   0.226   0.235   0.228   0.218   0.226   0.220   0.226   0.225   0.237   0.229   0.215   0.233
    80.05    0.206   0.203   0.202   0.196   0.211   0.207   0.212   0.206   0.215   0.216   0.216   0.223   0.228   0.233   0.226   0.217   0.216   0.232   0.242   0.232   0.233   0.237   0.227   0.231   0.228   0.240   0.218   0.226   0.220   0.218   0.224   0.234   0.229   0.236   0.238
    75.40    0.198   0.199   0.196   0.201   0.202   0.204   0.209   0.208   0.209   0.215   0.218   0.219   0.224   0.218   0.215   0.211   0.207   0.215   0.229   0.231   0.217   0.234   0.229   0.234   0.236   0.236   0.226   0.220   0.220   0.225   0.225   0.223   0.220   0.224   0.235
    70.75    0.199   0.198   0.185   0.184   0.186   0.191   0.187   0.203   0.209   0.202   0.199   0.208   0.211   0.215   0.204   0.199   0.201   0.206   0.219   0.218   0.227   0.227   0.236   0.222   0.225   0.221   0.231   0.220   0.229   0.230   0.227   0.222   0.224   0.228   0.237
    66.10    0.192   0.192   0.190   0.187   0.178   0.182   0.196   0.193   0.207   0.203   0.192   0.194   0.205   0.206   0.199   0.194   0.204   0.212   0.219   0.214   0.218   0.237   0.230   0.236   0.223   0.228   0.222   0.225   0.224   0.223   0.213   0.216   0.216   0.215   0.232
    61.45    0.189   0.190   0.187   0.192   0.184   0.180   0.194   0.198   0.194   0.190   0.204   0.206   0.205   0.198   0.205   0.199   0.208   0.218   0.221   0.222   0.227   0.229   0.239   0.240   0.221   0.228   0.228   0.231   0.229   0.224   0.219   0.217   0.215   0.223   0.236
    56.80    0.188   0.196   0.196   0.191   0.196   0.193   0.194   0.205   0.205   0.193   0.200   0.216   0.200   0.200   0.209   0.202   0.214   0.218   0.210   0.222   0.233   0.236   0.231   0.237   0.233   0.236   0.224   0.231   0.218   0.220   0.218   0.214   0.230   0.228   0.237
    52.15    0.192   0.204   0.203   0.198   0.206   0.199   0.196   0.199   0.203   0.205   0.214   0.203   0.210   0.209   0.207   0.208   0.205   0.217   0.218   0.220   0.236   0.230   0.225   0.234   0.238   0.232   0.239   0.233   0.222   0.211   0.219   0.233   0.225   0.226   0.230
    47.50    0.207   0.203   0.200   0.203   0.201   0.197   0.197   0.193   0.199   0.204   0.219   0.215   0.219   0.208   0.200   0.207   0.211   0.212   0.206   0.212   0.215   0.227   0.219   0.229   0.234   0.228   0.244   0.230   0.225   0.225   0.234   0.224   0.217   0.230   0.229
    42.85    0.197   0.205   0.201   0.207   0.202   0.205   0.197   0.197   0.205   0.205   0.211   0.209   0.217   0.204   0.198   0.199   0.219   0.209   0.223   0.219   0.223   0.226   0.232   0.226   0.226   0.231   0.248   0.244   0.237   0.235   0.236   0.225   0.220   0.228   0.225
    38.20    0.202   0.211   0.197   0.203   0.198   0.203   0.205   0.198   0.207   0.207   0.208   0.206   0.215   0.210   0.210   0.201   0.207   0.221   0.228   0.220   0.226   0.223   0.229   0.223   0.217   0.219   0.232   0.239   0.233   0.236   0.238   0.230   0.228   0.232   0.240
    33.55    0.200   0.199   0.205   0.206   0.206   0.200   0.215   0.208   0.215   0.217   0.212   0.214   0.218   0.225   0.208   0.205   0.216   0.219   0.225   0.225   0.222   0.217   0.226   0.214   0.206   0.209   0.234   0.228   0.234   0.238   0.240   0.248   0.238   0.243   0.239
    28.90    0.195   0.205   0.204   0.206   0.210   0.207   0.203   0.211   0.203   0.213   0.209   0.213   0.221   0.226   0.218   0.218   0.217   0.221   0.217   0.223   0.225   0.221   0.228   0.231   0.214   0.214   0.225   0.241   0.223   0.230   0.232   0.240   0.242   0.246   0.249
    24.25    0.183   0.190   0.200   0.211   0.216   0.223   0.214   0.213   0.211   0.210   0.209   0.207   0.211   0.222   0.215   0.221   0.227   0.219   0.221   0.228   0.226   0.225   0.234   0.242   0.223   0.231   0.228   0.229   0.225   0.232   0.236   0.240   0.240   0.237   0.248
    19.60    0.186   0.191   0.198   0.198   0.215   0.214   0.220   0.203   0.215   0.204   0.212   0.209   0.214   0.220   0.227   0.218   0.222   0.219   0.222   0.219   0.226   0.221   0.225   0.226   0.228   0.222   0.231   0.229   0.233   0.241   0.242   0.241   0.228   0.228   0.237
    14.95    0.190   0.200   0.191   0.208   0.211   0.217   0.219   0.212   0.218   0.206   0.213   0.217   0.217   0.222   0.216   0.216   0.223   0.224   0.212   0.213   0.228   0.213   0.204   0.207   0.205   0.219   0.207   0.222   0.226   0.229   0.234   0.225   0.216   0.226   0.238
    10.30    0.190   0.199   0.207   0.217   0.217   0.215   0.224   0.214   0.209   0.208   0.208   0.209   0.216   0.222   0.215   0.215   0.226   0.215   0.204   0.218   0.226   0.214   0.195   0.199   0.208   0.205   0.202   0.227   0.227   0.221   0.219   0.221   0.237   0.228   0.243
     5.65    0.190   0.207   0.212   0.217   0.222   0.226   0.218   0.205   0.200   0.199   0.206   0.205   0.215   0.213   0.209   0.209   0.214   0.221   0.209   0.214   0.209   0.214   0.203   0.204   0.203   0.210   0.211   0.214   0.219   0.226   0.227   0.235   0.240   0.247   0.251
     1.00    0.199   0.201   0.206   0.205   0.208   0.214   0.199   0.197   0.197   0.193   0.203   0.202   0.207   0.210   0.208   0.202   0.200   0.209   0.206   0.211   0.213   0.205   0.206   0.212   0.209   0.211   0.225   0.219   0.229   0.238   0.236   0.248   0.246   0.245   0.245

   Height   Standard deviation at grid points for the w component:
   168.40    0.140   0.142   0.138   0.139   0.139   0.142   0.142   0.141   0.141   0.139   0.141   0.140   0.138   0.129   0.132   0.136   0.137   0.145   0.146   0.146   0.147   0.141   0.145   0.137   0.133   0.142   0.145   0.141   0.138   0.133   0.137   0.141   0.142   0.143   0.142
   163.75    0.136   0.140   0.133   0.135   0.137   0.144   0.142   0.141   0.137   0.139   0.138   0.142   0.138   0.131   0.133   0.139   0.146   0.144   0.145   0.141   0.144   0.141   0.138   0.138   0.137   0.140   0.143   0.139   0.138   0.136   0.139   0.147   0.148   0.144   0.142
   159.10    0.138   0.135   0.134   0.138   0.142   0.145   0.145   0.145   0.135   0.138   0.136   0.140   0.138   0.142   0.141   0.138   0.137   0.135   0.135   0.140   0.143   0.137   0.135   0.134   0.138   0.136   0.140   0.135   0.139   0.137   0.138   0.144   0.148   0.144   0.144
   154.45    0.135   0.135   0.134   0.136   0.144   0.146   0.144   0.141   0.135   0.135   0.131   0.138   0.138   0.138   0.141   0.140   0.133   0.129   0.136   0.139   0.144   0.141   0.137   0.136   0.139   0.139   0.141   0.139   0.140   0.139   0.134   0.139   0.139   0.141   0.145
   149.80    0.136   0.134   0.138   0.141   0.140   0.140   0.135   0.137   0.141   0.133   0.135   0.137   0.141   0.137   0.139   0.138   0.133   0.132   0.129   0.140   0.139   0.137   0.139   0.139   0.136   0.134   0.139   0.140   0.137   0.141   0.138   0.140   0.142   0.143   0.145
   145.15    0.138   0.134   0.137   0.141   0.139   0.136   0.128   0.136   0.138   0.136   0.137   0.134   0.141   0.138   0.136   0.137   0.137   0.132   0.133   0.139   0.143   0.143   0.140   0.137   0.129   0.130   0.135   0.139   0.138   0.132   0.135   0.137   0.137   0.142   0.146
   140.50    0.142   0.133   0.135   0.133   0.135   0.130   0.128   0.132   0.144   0.139   0.135   0.134   0.135   0.137   0.139   0.137   0.140   0.135   0.136   0.141   0.143   0.145   0.143   0.143   0.133   0.139   0.136   0.140   0.138   0.134   0.138   0.137   0.138   0.140   0.144
   135.85    0.141   0.137   0.131   0.136   0.130   0.132   0.132   0.135   0.139   0.143   0.134   0.134   0.132   0.134   0.136   0.141   0.138   0.140   0.143   0.140   0.143   0.147   0.147   0.146   0.143   0.142   0.137   0.141   0.136   0.136   0.137   0.139   0.141   0.140   0.142
   131.20    0.139   0.136   0.136   0.139   0.137   0.129   0.132   0.137   0.140   0.139   0.138   0.136   0.135   0.137   0.133   0.137   0.139   0.141   0.136   0.138   0.142   0.142   0.140   0.144   0.140   0.136   0.134   0.140   0.139   0.140   0.138   0.141   0.141   0.143   0.143
   126.55    0.136   0.133   0.135   0.137   0.135   0.132   0.130   0.135   0.136   0.134   0.135   0.135   0.143   0.140   0.135   0.139   0.134   0.136   0.140   0.138   0.141   0.136   0.138   0.138   0.137   0.137   0.138   0.142   0.142   0.141   0.140   0.136   0.132   0.139   0.142
   121.90    0.131   0.133   0.134   0.134   0.138   0.135   0.135   0.133   0.138   0.134   0.140   0.140   0.142   0.140   0.133   0.139   0.137   0.136   0.134   0.137   0.136   0.140   0.141   0.140   0.136   0.140   0.137   0.141   0.143   0.141   0.139   0.136   0.133   0.139   0.138
   117.25    0.131   0.135   0.132   0.137   0.138   0.139   0.138   0.133   0.137   0.135   0.135   0.139   0.140   0.139   0.140   0.137   0.137   0.139   0.135   0.134   0.140   0.139   0.134   0.135   0.141   0.142   0.138   0.145   0.146   0.145   0.136   0.136   0.136   0.137   0.143
   112.60    0.129   0.135   0.139   0.140   0.137   0.131   0.136   0.135   0.138   0.136   0.134   0.144   0.144   0.139   0.135   0.136   0.140   0.142   0.137   0.138   0.137   0.138   0.139   0.140   0.145   0.144   0.144   0.146   0.147   0.146   0.145   0.136   0.138   0.142   0.143
   107.95    0.136   0.140   0.147   0.143   0.138   0.138   0.137   0.139   0.136   0.129   0.137   0.146   0.136   0.135   0.132   0.138   0.142   0.138   0.140   0.141   0.135   0.141   0.137   0.140   0.141   0.146   0.147   0.142   0.142   0.144   0.143   0.141   0.142   0.141   0.144
   103.30    0.139   0.141   0.141   0.146   0.134   0.134   0.132   0.139   0.136   0.133   0.135   0.136   0.134   0.134   0.131   0.136   0.139   0.137   0.138   0.134   0.140   0.135   0.137   0.141   0.138   0.140   0.142   0.142   0.141   0.138   0.139   0.138   0.145   0.146   0.143
    98.65    0.141   0.137   0.137   0.144   0.136   0.135   0.130   0.131   0.134   0.133   0.135   0.136   0.131   0.132   0.135   0.134   0.136   0.136   0.132   0.132   0.135   0.135   0.138   0.141   0.140   0.136   0.141   0.140   0.136   0.136   0.139   0.136   0.143   0.143   0.140
    94.00    0.137   0.134   0.139   0.138   0.134   0.138   0.134   0.136   0.138   0.139   0.133   0.135   0.131   0.133   0.134   0.137   0.134   0.135   0.139   0.138   0.135   0.140   0.139   0.143   0.142   0.143   0.145   0.139   0.140   0.137   0.139   0.137   0.137   0.138   0.135
    89.35    0.138   0.141   0.139   0.136   0.135   0.135   0.135   0.138   0.139   0.136   0.132   0.130   0.134   0.136   0.134   0.135   0.133   0.135   0.135   0.142   0.141   0.140   0.144   0.137   0.134   0.136   0.139   0.139   0.138   0.136   0.138   0.146   0.141   0.137   0.140
    84.70    0.145   0.145   0.144   0.140   0.138   0.136   0.135   0.140   0.138   0.140   0.133   0.134   0.134   0.138   0.140   0.140   0.140   0.134   0.137   0.142   0.140   0.139   0.139   0.143   0.136   0.143   0.140   0.139   0.137   0.136   0.138   0.139   0.138   0.138   0.137
    80.05    0.140   0.139   0.138   0.138   0.137   0.140   0.136   0.136   0.132   0.134   0.136   0.139   0.141   0.135   0.135   0.143   0.144   0.139   0.136   0.143   0.141   0.135   0.137   0.142   0.145   0.141   0.143   0.140   0.141   0.139   0.134   0.138   0.137   0.140   0.139
    75.40    0.141   0.134   0.136   0.139   0.137   0.142   0.142   0.139   0.137   0.129   0.133   0.133   0.139   0.141   0.143   0.143   0.143   0.139   0.140   0.140   0.142   0.138   0.144   0.145   0.143   0.139   0.141   0.142   0.138   0.140   0.138   0.136   0.137   0.140   0.138
    70.75    0.139   0.141   0.136   0.138   0.134   0.141   0.144   0.138   0.135   0.131   0.133   0.138   0.138   0.139   0.144   0.147   0.140   0.136   0.140   0.138   0.132   0.136   0.140   0.141   0.142   0.139   0.140   0.143   0.142   0.140   0.141   0.136   0.140   0.142   0.133
    66.10    0.136   0.137   0.139   0.142   0.139   0.138   0.137   0.135   0.126   0.132   0.131   0.134   0.138   0.144   0.143   0.139   0.136   0.141   0.138   0.138   0.136   0.138   0.143   0.138   0.140   0.142   0.143   0.139   0.143   0.144   0.144   0.145   0.144   0.141   0.135
    61.45    0.141   0.138   0.135   0.140   0.138   0.141   0.141   0.139   0.134   0.134   0.132   0.129   0.130   0.134   0.137   0.136   0.138   0.135   0.138   0.141   0.136   0.139   0.141   0.141   0.135   0.140   0.144   0.138   0.144   0.145   0.153   0.152   0.141   0.140   0.136
    56.80    0.138   0.133   0.135   0.138   0.138   0.140   0.142   0.140   0.137   0.134   0.132   0.131   0.134   0.135   0.132   0.133   0.135   0.133   0.140   0.136   0.135   0.141   0.140   0.140   0.136   0.145   0.142   0.145   0.144   0.149   0.148   0.146   0.139   0.139   0.139
    52.15    0.140   0.140   0.137   0.133   0.135   0.143   0.146   0.140   0.138   0.134   0.135   0.136   0.135   0.137   0.134   0.131   0.131   0.135   0.139   0.140   0.133   0.142   0.137   0.136   0.141   0.148   0.147   0.145   0.146   0.142   0.146   0.143   0.136   0.138   0.142
    47.50    0.142   0.140   0.141   0.131   0.130   0.140   0.139   0.140   0.135   0.132   0.134   0.132   0.131   0.134   0.134   0.134   0.135   0.130   0.133   0.139   0.138   0.140   0.140   0.136   0.141   0.143   0.143   0.141   0.142   0.141   0.140   0.141   0.138   0.141   0.139
    42.85    0.137   0.138   0.137   0.134   0.140   0.137   0.136   0.136   0.134   0.130   0.134   0.132   0.132   0.133   0.127   0.133   0.133   0.136   0.135   0.136   0.135   0.139   0.137   0.140   0.144   0.144   0.146   0.142   0.138   0.139   0.139   0.138   0.140   0.137   0.140
    38.20    0.143   0.139   0.134   0.138   0.139   0.137   0.138   0.135   0.135   0.132   0.131   0.133   0.130   0.131   0.126   0.134   0.135   0.131   0.131   0.132   0.133   0.139   0.143   0.143   0.145   0.151   0.144   0.141   0.139   0.141   0.142   0.135   0.134   0.137   0.142
    33.55    0.139   0.137   0.139   0.138   0.135   0.136   0.143   0.141   0.132   0.129   0.135   0.132   0.132   0.132   0.129   0.130   0.133   0.132   0.133   0.131   0.134   0.137   0.136   0.138   0.144   0.146   0.140   0.144   0.138   0.141   0.139   0.141   0.136   0.139   0.139
    28.90    0.139   0.140   0.140   0.140   0.132   0.136   0.138   0.135   0.138   0.136   0.138   0.142   0.137   0.134   0.132   0.128   0.129   0.124   0.132   0.133   0.133   0.140   0.137   0.145   0.142   0.146   0.145   0.142   0.142   0.141   0.142   0.136   0.135   0.138   0.141
    24.25    0.135   0.141   0.140   0.142   0.138   0.139   0.139   0.142   0.144   0.142   0.137   0.136   0.138   0.137   0.136   0.136   0.124   0.123   0.133   0.135   0.133   0.138   0.140   0.147   0.144   0.144   0.142   0.145   0.140   0.142   0.142   0.143   0.138   0.140   0.142
    19.60    0.134   0.137   0.141   0.142   0.146   0.143   0.143   0.142   0.145   0.142   0.136   0.138   0.140   0.132   0.132   0.133   0.131   0.129   0.130   0.141   0.134   0.134   0.136   0.138   0.140   0.144   0.147   0.145   0.144   0.142   0.144   0.143   0.142   0.139   0.138
    14.95    0.137   0.139   0.138   0.141   0.145   0.143   0.142   0.141   0.143   0.137   0.140   0.144   0.136   0.133   0.133   0.128   0.127   0.132   0.133   0.137   0.138   0.131   0.135   0.135   0.139   0.139   0.143   0.146   0.143   0.141   0.139   0.138   0.137   0.141   0.141
    10.30    0.140   0.136   0.139   0.137   0.145   0.147   0.143   0.144   0.140   0.139   0.143   0.140   0.132   0.133   0.132   0.127   0.133   0.133   0.136   0.134   0.137   0.137   0.137   0.140   0.139   0.140   0.142   0.139   0.142   0.140   0.136   0.137   0.141   0.138   0.140
     5.65    0.142   0.135   0.136   0.139   0.141   0.144   0.148   0.141   0.141   0.140   0.140   0.138   0.134   0.130   0.130   0.127   0.129   0.133   0.135   0.135   0.133   0.136   0.138   0.133   0.137   0.139   0.141   0.137   0.138   0.134   0.136   0.134   0.137   0.135   0.137
     1.00    0.136   0.138   0.139   0.140   0.140   0.142   0.142   0.142   0.137   0.138   0.136   0.135   0.129   0.132   0.133   0.131   0.131   0.129   0.135   0.136   0.138   0.137   0.136   0.137   0.139   0.139   0.134   0.137   0.133   0.136   0.135   0.134   0.141   0.139   0.136

   Mean standard deviation across all grid points:
      u component:    0.298 m/s
      v component:    0.232 m/s
      w component:    0.138 m/s


U-component (X) statistics from the interpolated hub point:

   Mean =   9.9913 m/s
   TI   =   2.8195 %


Processing complete.  5961.7 CPU seconds used.
