
This summary file was generated by TurbSim (from OpenFAST-v3.5.3) on 20-Apr-2025 at 05:25:39.


Runtime Options:

**********  Random seed #1
    RANLUX  Type of random number generator
         F  Output binary HH turbulence parameters?
         F  Output formatted turbulence parameters?
         F  Output AeroDyn HH files?
         T  Output AeroDyn FF files?
         F  Output BLADED FF files?
         F  Output tower data?
         F  Output HAWC FF files?
         F  Output formatted FF files?
         T  Output coherent turbulence time step file?
 0 -  NONE  IEC turbulence models scaled to exact specified standard deviation


Turbine/Model Specifications:

        37  Vertical grid-point matrix dimension
        35  Horizontal grid-point matrix dimension
     0.250  Time step [seconds]
   900.000  Analysis time [seconds]
   900.000  Usable output time [seconds]
    89.350  Hub height [m]
   167.400  Grid height [m]
   158.100  Grid width [m]
     0.000  Vertical flow angle [degrees]
     0.000  Horizontal flow angle [degrees]


Meteorological Boundary Conditions:

    TIMESR  User-input time series spectral model
       N/A  IEC standard
       N/A  IEC turbulence characteristic
       N/A  IEC turbulence type
       N/A  IEC Extreme Turbulence Model (ETM) "c" parameter [m/s]
       PL   Wind profile type
    90.000  Reference height [m]
    10.000  Reference wind speed [m/s]
       N/A  Jet height [m]
     0.120  Power law exponent
     0.030  Surface roughness length [m]


Non-IEC Meteorological Boundary Conditions:

    45.000  Site latitude [degrees]
     0.050  Gradient Richardson number
     0.480  Friction or shear velocity [m/s]
       N/A  Mixing layer depth [m]
       N/A  Mean hub u'w' Reynolds stress
       N/A  Mean hub u'v' Reynolds stress
       N/A  Mean hub v'w' Reynolds stress


Spatial Coherence Models:

       IEC  u-component coherence model
       IEC  v-component coherence model
       IEC  w-component coherence model
(   12.000, 0.353E-03)  u-component coherence parameters
(   12.000, 0.353E-03)  v-component coherence parameters
(   12.000, 0.353E-03)  w-component coherence parameters
       N/A  Coherence exponent


Coherent Turbulence Scaling Parameters:

.\EventData
            Name of the path containing the coherent turbulence data files
       dns  Type of coherent turbulence data files
     1.000  Disturbance scale (ratio of wave height to rotor diameter)
     0.500  Fractional location of tower centerline from right
     0.500  Fractional location of hub height from the bottom of the dataset
    30.000  Minimum start time for coherent structures [seconds]


Profiles from User-Defined Time-Series Input:

  Height   Wind Speed   Horizontal Angle   Vertical Angle
   (m)        (m/s)          (deg)              (deg)    
  ------   ----------   ----------------   --------------
   94.00      10.00          -0.63                0.00


You have requested that the following file(s) be generated:

   /kfs3/scratch/agupta/Projects/RL_Incubator/FinalRuns_Veer/Seed4/./FFSim_Seed4/Cond00_v10.0_PL0.12_TI4.0/Case1_wdirp02/Seed_3/TurbSim/HighT7.bts (AeroDyn/TurbSim full-field wind file)


Turbulence Simulation Scaling Parameter Summary:

   Turbulence model used                            =  User-input time series
   Gradient Richardson number                       =    0.050
   Monin-Obukhov (M-O) z/L parameter                =    0.067
   Monin-Obukhov (M-O) length scale                 = 1340.250 m
   Mean wind speed at hub height                    =    9.991 m/s

   Wind profile type                                =  Power law
   Power law exponent                               =    0.120
   Mean shear across rotor disk                     =    0.019 (m/s)/m
   Assumed rotor diameter                           =  158.100 m
   Surface roughness length                         =    0.030 m

   Nyquist frequency of turbulent wind field        =    2.000 Hz

   Number of time steps in the FFT                  =     3600
   Number of time steps output                      =     3600
   Number of points simulated                       =     1296


Mean Flow Angles:

   Vertical   =   0.0 degrees
   Horizontal =   0.0 degrees

Mean Wind Speed Profile:

   Height    Wind Speed   Horizontal Angle  Vertical Angle  U-comp (X)   V-comp (Y)   W-comp (Z)
     (m)        (m/s)         (degrees)       (degrees)       (m/s)        (m/s)        (m/s)   
   ------    ----------   ----------------  --------------  ----------   ----------   ----------
    168.4       10.78            0.00            0.00         10.78         0.00         0.00
    163.7       10.74            0.00            0.00         10.74         0.00         0.00
    159.1       10.71            0.00            0.00         10.71         0.00         0.00
    154.4       10.67            0.00            0.00         10.67         0.00         0.00
    149.8       10.63            0.00            0.00         10.63         0.00         0.00
    145.1       10.59            0.00            0.00         10.59         0.00         0.00
    140.5       10.55            0.00            0.00         10.55         0.00         0.00
    135.8       10.51            0.00            0.00         10.51         0.00         0.00
    131.2       10.46            0.00            0.00         10.46         0.00         0.00
    126.5       10.42            0.00            0.00         10.42         0.00         0.00
    121.9       10.37            0.00            0.00         10.37         0.00         0.00
    117.2       10.32            0.00            0.00         10.32         0.00         0.00
    112.6       10.27            0.00            0.00         10.27         0.00         0.00
    107.9       10.22            0.00            0.00         10.22         0.00         0.00
    103.3       10.17            0.00            0.00         10.17         0.00         0.00
     98.6       10.11            0.00            0.00         10.11         0.00         0.00
     94.0       10.05            0.00            0.00         10.05         0.00         0.00
     89.3        9.99            0.00            0.00          9.99         0.00         0.00
     84.7        9.93            0.00            0.00          9.93         0.00         0.00
     80.0        9.86            0.00            0.00          9.86         0.00         0.00
     75.4        9.79            0.00            0.00          9.79         0.00         0.00
     70.7        9.72            0.00            0.00          9.72         0.00         0.00
     66.1        9.64            0.00            0.00          9.64         0.00         0.00
     61.4        9.55            0.00            0.00          9.55         0.00         0.00
     56.8        9.46            0.00            0.00          9.46         0.00         0.00
     52.1        9.37            0.00            0.00          9.37         0.00         0.00
     47.5        9.26            0.00            0.00          9.26         0.00         0.00
     42.8        9.15            0.00            0.00          9.15         0.00         0.00
     38.2        9.02            0.00            0.00          9.02         0.00         0.00
     33.5        8.88            0.00            0.00          8.88         0.00         0.00
     28.9        8.73            0.00            0.00          8.73         0.00         0.00
     24.2        8.54            0.00            0.00          8.54         0.00         0.00
     19.6        8.33            0.00            0.00          8.33         0.00         0.00
     14.9        8.06            0.00            0.00          8.06         0.00         0.00
     10.3        7.71            0.00            0.00          7.71         0.00         0.00
      5.6        7.17            0.00            0.00          7.17         0.00         0.00
      1.0        5.83            0.00            0.00          5.83         0.00         0.00


Harvested Random Seeds after Generation of the Random Numbers:

     65026800 K 1
            0 K 2


Hub-Height Simulated Turbulence Statistical Summary:

   Type of Wind        Min (m/s)   Mean (m/s)    Max (m/s)  Sigma (m/s)       TI (%)
   ----------------    ---------   ----------    ---------  -----------       ------
   Longitudinal (u)         8.49         9.99        11.13        0.420        4.200
   Lateral (v)             -0.79         0.00         0.92        0.272        2.722
   Vertical (w)            -0.65         0.00         0.70        0.190        1.905
   U component              8.49         9.99        11.13        0.420        4.200
   V component             -0.79         0.00         0.92        0.272        2.722
   W component             -0.65         0.00         0.70        0.190        1.905
   Horizontal (U&V)         8.49        10.00        11.13        0.420        4.197
   Total                    8.50        10.00        11.13        0.420        4.196

                       Min Reynolds     Mean Reynolds    Max Reynolds    Correlation
   Product             Stress (m/s)^2   Stress (m/s)^2   Stress (m/s)^2  Coefficient
   ----------------    --------------   --------------   --------------  -----------
   u'w'                     -0.525             0.004             0.546         0.046
   u'v'                     -0.620             0.018             0.548         0.158
   v'w'                     -0.359            -0.002             0.360        -0.032


   Friction Velocity (Ustar)  =      0.061 m/s
   Maximum Instantaneous TKE  =      1.183 (m/s)^2
   Maximum Instantaneous CTKE =      0.321 (m/s)^2


Grid Point Variance Summary:

   Y-coord  -79.05  -74.40  -69.75  -65.10  -60.45  -55.80  -51.15  -46.50  -41.85  -37.20  -32.55  -27.90  -23.25  -18.60  -13.95   -9.30   -4.65    0.00    4.65    9.30   13.95   18.60   23.25   27.90   32.55   37.20   41.85   46.50   51.15   55.80   60.45   65.10   69.75   74.40   79.05

   Height   Standard deviation at grid points for the u component:
   168.40    0.455   0.445   0.441   0.485   0.465   0.519   0.539   0.550   0.525   0.510   0.525   0.505   0.453   0.443   0.425   0.387   0.407   0.400   0.368   0.378   0.377   0.411   0.443   0.482   0.456   0.492   0.519   0.507   0.502   0.500   0.505   0.511   0.533   0.530   0.581
   163.75    0.462   0.464   0.459   0.472   0.459   0.502   0.528   0.528   0.499   0.516   0.498   0.466   0.436   0.408   0.374   0.392   0.401   0.405   0.369   0.366   0.411   0.431   0.452   0.455   0.457   0.500   0.512   0.475   0.473   0.514   0.534   0.511   0.523   0.531   0.561
   159.10    0.452   0.413   0.405   0.427   0.454   0.493   0.511   0.490   0.509   0.525   0.490   0.446   0.488   0.455   0.419   0.432   0.386   0.411   0.383   0.396   0.434   0.431   0.469   0.474   0.476   0.505   0.545   0.506   0.486   0.471   0.508   0.520   0.469   0.505   0.512
   154.45    0.431   0.402   0.413   0.465   0.467   0.492   0.495   0.502   0.489   0.502   0.483   0.450   0.476   0.481   0.426   0.408   0.398   0.407   0.413   0.424   0.454   0.440   0.494   0.474   0.461   0.490   0.530   0.519   0.498   0.479   0.529   0.511   0.471   0.480   0.472
   149.80    0.418   0.424   0.378   0.419   0.464   0.446   0.486   0.481   0.457   0.457   0.476   0.437   0.465   0.447   0.457   0.409   0.406   0.390   0.428   0.402   0.448   0.459   0.495   0.473   0.450   0.470   0.490   0.510   0.484   0.538   0.548   0.519   0.466   0.475   0.476
   145.15    0.460   0.418   0.409   0.397   0.451   0.476   0.470   0.503   0.480   0.453   0.459   0.435   0.453   0.441   0.438   0.417   0.415   0.437   0.423   0.401   0.440   0.457   0.492   0.481   0.461   0.483   0.472   0.478   0.456   0.512   0.531   0.545   0.482   0.494   0.469
   140.50    0.493   0.454   0.464   0.445   0.466   0.453   0.480   0.487   0.460   0.444   0.424   0.414   0.414   0.399   0.416   0.399   0.407   0.427   0.462   0.453   0.480   0.462   0.501   0.460   0.448   0.485   0.462   0.452   0.439   0.518   0.502   0.504   0.502   0.485   0.471
   135.85    0.545   0.470   0.461   0.481   0.434   0.448   0.464   0.467   0.443   0.446   0.412   0.378   0.395   0.405   0.391   0.377   0.444   0.469   0.463   0.476   0.499   0.529   0.488   0.469   0.467   0.497   0.524   0.496   0.494   0.545   0.579   0.552   0.552   0.499   0.488
   131.20    0.541   0.468   0.480   0.424   0.447   0.448   0.442   0.459   0.463   0.432   0.419   0.410   0.379   0.413   0.404   0.437   0.429   0.434   0.450   0.456   0.447   0.500   0.511   0.503   0.506   0.566   0.543   0.550   0.511   0.531   0.549   0.538   0.522   0.486   0.519
   126.55    0.532   0.467   0.459   0.441   0.439   0.450   0.435   0.447   0.471   0.419   0.410   0.405   0.414   0.436   0.449   0.440   0.440   0.385   0.431   0.474   0.484   0.489   0.511   0.498   0.529   0.575   0.567   0.506   0.529   0.537   0.503   0.531   0.507   0.487   0.541
   121.90    0.509   0.501   0.511   0.470   0.490   0.473   0.450   0.457   0.453   0.413   0.403   0.439   0.429   0.448   0.472   0.415   0.395   0.369   0.393   0.444   0.457   0.495   0.501   0.490   0.541   0.551   0.557   0.547   0.524   0.506   0.501   0.559   0.573   0.535   0.534
   117.25    0.554   0.544   0.500   0.521   0.490   0.477   0.489   0.442   0.446   0.404   0.399   0.399   0.453   0.427   0.449   0.446   0.376   0.355   0.380   0.418   0.436   0.452   0.475   0.483   0.548   0.575   0.516   0.563   0.563   0.542   0.543   0.565   0.577   0.508   0.506
   112.60    0.549   0.528   0.521   0.553   0.538   0.474   0.497   0.441   0.454   0.432   0.407   0.415   0.430   0.445   0.430   0.401   0.410   0.396   0.382   0.410   0.394   0.397   0.460   0.481   0.538   0.556   0.524   0.539   0.524   0.571   0.585   0.585   0.549   0.496   0.503
   107.95    0.513   0.539   0.546   0.542   0.545   0.499   0.474   0.434   0.422   0.424   0.409   0.383   0.405   0.419   0.410   0.405   0.443   0.420   0.412   0.432   0.416   0.415   0.470   0.516   0.536   0.557   0.529   0.531   0.563   0.552   0.564   0.547   0.521   0.504   0.478
   103.30    0.522   0.539   0.485   0.529   0.513   0.484   0.433   0.430   0.409   0.380   0.373   0.403   0.395   0.402   0.390   0.383   0.391   0.398   0.437   0.443   0.450   0.426   0.438   0.503   0.539   0.526   0.525   0.534   0.532   0.549   0.512   0.552   0.512   0.474   0.502
    98.65    0.538   0.504   0.511   0.518   0.480   0.443   0.437   0.397   0.414   0.390   0.396   0.412   0.406   0.373   0.383   0.440   0.395   0.429   0.442   0.427   0.438   0.440   0.470   0.480   0.495   0.531   0.517   0.509   0.521   0.527   0.496   0.515   0.553   0.496   0.505
    94.00    0.527   0.534   0.541   0.539   0.503   0.454   0.482   0.441   0.420   0.397   0.352   0.393   0.361   0.379   0.401   0.419   0.403   0.429   0.441   0.486   0.473   0.511   0.492   0.452   0.490   0.509   0.523   0.534   0.533   0.499   0.511   0.455   0.498   0.522   0.510
    89.35    0.537   0.503   0.507   0.491   0.490   0.449   0.492   0.447   0.433   0.405   0.361   0.374   0.354   0.370   0.390   0.401   0.388   0.420   0.437   0.438   0.505   0.536   0.490   0.457   0.479   0.478   0.472   0.497   0.483   0.531   0.508   0.472   0.465   0.523   0.545
    84.70    0.537   0.499   0.453   0.438   0.428   0.461   0.485   0.468   0.424   0.390   0.367   0.356   0.397   0.393   0.408   0.426   0.406   0.417   0.453   0.469   0.493   0.520   0.511   0.474   0.462   0.483   0.520   0.530   0.479   0.520   0.507   0.490   0.512   0.527   0.541
    80.05    0.505   0.444   0.432   0.451   0.455   0.455   0.452   0.444   0.408   0.380   0.376   0.375   0.391   0.427   0.429   0.396   0.428   0.468   0.488   0.455   0.476   0.506   0.494   0.513   0.500   0.494   0.521   0.500   0.470   0.529   0.543   0.540   0.534   0.529   0.510
    75.40    0.493   0.436   0.448   0.458   0.439   0.437   0.437   0.402   0.384   0.391   0.409   0.392   0.404   0.435   0.456   0.400   0.444   0.486   0.528   0.489   0.463   0.487   0.520   0.484   0.493   0.530   0.503   0.514   0.473   0.502   0.548   0.532   0.568   0.533   0.503
    70.75    0.474   0.449   0.473   0.527   0.518   0.445   0.434   0.399   0.378   0.379   0.380   0.369   0.404   0.448   0.431   0.405   0.397   0.465   0.525   0.512   0.501   0.501   0.542   0.488   0.505   0.507   0.522   0.469   0.468   0.492   0.525   0.544   0.570   0.521   0.528
    66.10    0.460   0.467   0.519   0.522   0.513   0.472   0.476   0.459   0.410   0.359   0.359   0.352   0.370   0.422   0.453   0.420   0.408   0.430   0.506   0.536   0.554   0.535   0.539   0.514   0.488   0.530   0.498   0.464   0.478   0.505   0.480   0.531   0.558   0.529   0.502
    61.45    0.461   0.486   0.539   0.522   0.490   0.510   0.463   0.429   0.397   0.390   0.359   0.341   0.362   0.424   0.457   0.452   0.434   0.483   0.509   0.552   0.532   0.531   0.512   0.534   0.508   0.515   0.510   0.483   0.454   0.480   0.483   0.528   0.566   0.505   0.454
    56.80    0.496   0.474   0.524   0.552   0.498   0.517   0.445   0.421   0.444   0.401   0.403   0.403   0.390   0.402   0.443   0.478   0.471   0.473   0.483   0.526   0.545   0.594   0.561   0.572   0.523   0.502   0.522   0.520   0.497   0.464   0.446   0.513   0.547   0.510   0.468
    52.15    0.516   0.467   0.504   0.533   0.506   0.523   0.455   0.448   0.422   0.425   0.409   0.379   0.406   0.405   0.419   0.443   0.483   0.488   0.517   0.550   0.558   0.580   0.569   0.552   0.485   0.514   0.491   0.514   0.474   0.498   0.468   0.497   0.523   0.483   0.472
    47.50    0.498   0.470   0.482   0.516   0.499   0.499   0.483   0.450   0.473   0.438   0.424   0.418   0.396   0.403   0.384   0.437   0.469   0.504   0.547   0.531   0.534   0.552   0.543   0.511   0.469   0.476   0.472   0.466   0.458   0.474   0.492   0.506   0.482   0.499   0.505
    42.85    0.570   0.519   0.555   0.558   0.527   0.482   0.483   0.490   0.439   0.441   0.457   0.452   0.399   0.395   0.446   0.461   0.493   0.522   0.533   0.535   0.522   0.517   0.505   0.511   0.449   0.434   0.395   0.440   0.482   0.460   0.460   0.456   0.475   0.486   0.486
    38.20    0.552   0.535   0.556   0.518   0.533   0.546   0.517   0.473   0.493   0.479   0.461   0.447   0.446   0.448   0.466   0.479   0.539   0.530   0.561   0.497   0.516   0.472   0.458   0.486   0.476   0.408   0.399   0.446   0.484   0.457   0.460   0.428   0.481   0.487   0.448
    33.55    0.564   0.562   0.555   0.511   0.541   0.531   0.554   0.523   0.481   0.528   0.521   0.494   0.502   0.501   0.502   0.500   0.564   0.571   0.548   0.531   0.522   0.503   0.485   0.494   0.442   0.427   0.442   0.417   0.468   0.499   0.479   0.466   0.481   0.474   0.494
    28.90    0.554   0.504   0.483   0.507   0.516   0.504   0.513   0.539   0.507   0.530   0.498   0.474   0.510   0.541   0.493   0.497   0.546   0.541   0.554   0.527   0.475   0.499   0.520   0.511   0.480   0.449   0.484   0.462   0.473   0.462   0.480   0.492   0.441   0.443   0.451
    24.25    0.540   0.515   0.486   0.472   0.532   0.480   0.485   0.516   0.530   0.545   0.509   0.529   0.499   0.518   0.495   0.502   0.498   0.545   0.572   0.552   0.512   0.500   0.530   0.523   0.515   0.502   0.469   0.491   0.463   0.447   0.424   0.455   0.452   0.428   0.441
    19.60    0.519   0.476   0.495   0.512   0.500   0.487   0.499   0.497   0.522   0.535   0.539   0.509   0.466   0.451   0.495   0.486   0.505   0.539   0.544   0.522   0.527   0.559   0.546   0.543   0.546   0.534   0.498   0.471   0.474   0.439   0.404   0.440   0.425   0.418   0.470
    14.95    0.501   0.472   0.476   0.450   0.460   0.508   0.471   0.501   0.498   0.503   0.537   0.537   0.518   0.447   0.468   0.449   0.472   0.499   0.504   0.509   0.553   0.578   0.562   0.492   0.497   0.526   0.535   0.489   0.505   0.438   0.416   0.424   0.450   0.447   0.463
    10.30    0.511   0.460   0.458   0.441   0.473   0.484   0.485   0.477   0.494   0.446   0.499   0.489   0.461   0.430   0.415   0.424   0.463   0.466   0.468   0.506   0.545   0.559   0.486   0.512   0.485   0.496   0.502   0.504   0.469   0.472   0.431   0.399   0.399   0.461   0.500
     5.65    0.514   0.474   0.419   0.436   0.432   0.423   0.417   0.439   0.439   0.446   0.458   0.436   0.446   0.416   0.411   0.432   0.430   0.464   0.487   0.495   0.499   0.515   0.469   0.498   0.518   0.460   0.471   0.470   0.436   0.435   0.420   0.407   0.420   0.465   0.492
     1.00    0.468   0.480   0.420   0.416   0.386   0.415   0.388   0.413   0.398   0.422   0.443   0.453   0.443   0.431   0.401   0.381   0.408   0.420   0.438   0.440   0.460   0.478   0.445   0.469   0.504   0.464   0.452   0.417   0.398   0.394   0.412   0.434   0.462   0.447   0.440

   Height   Standard deviation at grid points for the v component:
   168.40    0.259   0.260   0.253   0.258   0.255   0.268   0.271   0.282   0.285   0.291   0.285   0.287   0.302   0.317   0.320   0.313   0.314   0.307   0.330   0.317   0.300   0.295   0.302   0.288   0.294   0.288   0.281   0.291   0.283   0.299   0.287   0.295   0.283   0.294   0.289
   163.75    0.269   0.249   0.251   0.264   0.262   0.258   0.268   0.275   0.290   0.296   0.285   0.294   0.300   0.300   0.311   0.321   0.318   0.310   0.324   0.313   0.315   0.305   0.291   0.284   0.289   0.293   0.290   0.295   0.291   0.293   0.289   0.293   0.292   0.290   0.299
   159.10    0.266   0.262   0.256   0.260   0.263   0.268   0.273   0.282   0.290   0.284   0.290   0.292   0.294   0.291   0.305   0.312   0.318   0.314   0.324   0.302   0.311   0.299   0.294   0.289   0.284   0.281   0.297   0.296   0.298   0.295   0.286   0.285   0.283   0.274   0.276
   154.45    0.265   0.263   0.272   0.262   0.264   0.266   0.281   0.291   0.290   0.288   0.280   0.296   0.303   0.299   0.316   0.317   0.318   0.317   0.330   0.317   0.313   0.307   0.290   0.285   0.295   0.293   0.301   0.292   0.288   0.289   0.280   0.286   0.293   0.285   0.272
   149.80    0.278   0.277   0.268   0.273   0.278   0.289   0.282   0.283   0.297   0.283   0.284   0.294   0.289   0.306   0.313   0.322   0.333   0.334   0.336   0.333   0.326   0.301   0.302   0.298   0.301   0.290   0.276   0.282   0.283   0.270   0.276   0.279   0.276   0.286   0.281
   145.15    0.281   0.275   0.274   0.270   0.283   0.282   0.281   0.291   0.294   0.283   0.281   0.292   0.292   0.307   0.307   0.320   0.331   0.342   0.336   0.334   0.324   0.308   0.305   0.298   0.300   0.281   0.277   0.282   0.278   0.268   0.275   0.279   0.278   0.286   0.265
   140.50    0.288   0.273   0.279   0.283   0.280   0.267   0.276   0.285   0.279   0.285   0.283   0.295   0.299   0.303   0.303   0.319   0.324   0.325   0.306   0.327   0.321   0.296   0.296   0.288   0.283   0.278   0.279   0.281   0.274   0.269   0.262   0.269   0.267   0.284   0.255
   135.85    0.288   0.284   0.300   0.287   0.286   0.274   0.274   0.267   0.280   0.275   0.285   0.297   0.297   0.302   0.301   0.293   0.308   0.293   0.296   0.308   0.311   0.302   0.300   0.291   0.285   0.280   0.275   0.271   0.259   0.252   0.257   0.255   0.266   0.265   0.262
   131.20    0.277   0.291   0.286   0.293   0.276   0.273   0.279   0.276   0.262   0.278   0.287   0.293   0.310   0.300   0.301   0.292   0.301   0.291   0.304   0.299   0.307   0.311   0.305   0.287   0.284   0.274   0.288   0.264   0.252   0.245   0.253   0.256   0.257   0.260   0.255
   126.55    0.279   0.293   0.292   0.300   0.287   0.270   0.268   0.267   0.271   0.269   0.278   0.287   0.293   0.295   0.287   0.290   0.285   0.288   0.297   0.301   0.312   0.309   0.296   0.295   0.303   0.279   0.282   0.269   0.261   0.260   0.252   0.243   0.256   0.250   0.256
   121.90    0.282   0.277   0.281   0.290   0.279   0.271   0.265   0.261   0.265   0.267   0.268   0.268   0.283   0.294   0.284   0.279   0.286   0.305   0.304   0.303   0.300   0.304   0.303   0.300   0.283   0.275   0.276   0.259   0.280   0.267   0.252   0.248   0.253   0.247   0.253
   117.25    0.276   0.276   0.277   0.287   0.276   0.267   0.263   0.276   0.273   0.269   0.266   0.272   0.287   0.277   0.280   0.284   0.284   0.292   0.288   0.286   0.296   0.293   0.297   0.313   0.296   0.270   0.274   0.261   0.267   0.263   0.262   0.245   0.254   0.244   0.242
   112.60    0.271   0.276   0.281   0.289   0.277   0.261   0.266   0.266   0.272   0.277   0.275   0.265   0.282   0.283   0.279   0.289   0.287   0.285   0.288   0.285   0.302   0.295   0.295   0.295   0.284   0.261   0.258   0.261   0.271   0.278   0.264   0.252   0.251   0.243   0.243
   107.95    0.277   0.287   0.278   0.283   0.285   0.285   0.265   0.270   0.261   0.266   0.278   0.279   0.281   0.277   0.279   0.282   0.278   0.280   0.300   0.283   0.297   0.291   0.285   0.280   0.280   0.268   0.254   0.258   0.262   0.267   0.263   0.257   0.253   0.252   0.250
   103.30    0.299   0.304   0.284   0.284   0.276   0.280   0.277   0.289   0.271   0.276   0.262   0.279   0.282   0.269   0.261   0.275   0.277   0.285   0.294   0.297   0.289   0.299   0.283   0.283   0.280   0.269   0.267   0.267   0.257   0.270   0.265   0.260   0.247   0.252   0.249
    98.65    0.313   0.321   0.309   0.294   0.277   0.290   0.283   0.293   0.277   0.268   0.280   0.282   0.272   0.275   0.275   0.281   0.283   0.277   0.280   0.295   0.284   0.273   0.286   0.269   0.276   0.279   0.269   0.264   0.267   0.263   0.254   0.256   0.255   0.251   0.257
    94.00    0.302   0.303   0.300   0.283   0.294   0.289   0.293   0.292   0.281   0.288   0.290   0.281   0.283   0.261   0.270   0.279   0.284   0.272   0.275   0.273   0.268   0.279   0.283   0.276   0.277   0.278   0.270   0.281   0.281   0.264   0.262   0.265   0.258   0.263   0.271
    89.35    0.287   0.291   0.292   0.279   0.284   0.284   0.287   0.278   0.272   0.275   0.279   0.278   0.271   0.287   0.285   0.274   0.279   0.272   0.265   0.269   0.270   0.281   0.272   0.276   0.279   0.288   0.276   0.282   0.275   0.279   0.269   0.259   0.261   0.261   0.260
    84.70    0.282   0.292   0.280   0.267   0.285   0.274   0.295   0.286   0.294   0.275   0.282   0.269   0.266   0.278   0.279   0.271   0.261   0.271   0.272   0.278   0.280   0.273   0.269   0.270   0.279   0.284   0.280   0.280   0.283   0.278   0.267   0.267   0.265   0.253   0.268
    80.05    0.287   0.282   0.264   0.268   0.274   0.270   0.286   0.286   0.285   0.277   0.266   0.280   0.281   0.281   0.282   0.284   0.268   0.267   0.273   0.274   0.280   0.268   0.267   0.255   0.270   0.283   0.267   0.273   0.278   0.279   0.273   0.279   0.270   0.278   0.274
    75.40    0.277   0.278   0.276   0.282   0.270   0.263   0.278   0.280   0.277   0.275   0.271   0.269   0.286   0.281   0.284   0.281   0.264   0.249   0.268   0.280   0.271   0.272   0.262   0.254   0.270   0.268   0.271   0.266   0.269   0.277   0.288   0.285   0.273   0.271   0.272
    70.75    0.278   0.283   0.281   0.273   0.268   0.271   0.268   0.273   0.280   0.273   0.263   0.262   0.280   0.286   0.273   0.270   0.258   0.252   0.253   0.260   0.266   0.260   0.262   0.253   0.266   0.263   0.272   0.265   0.280   0.283   0.287   0.286   0.290   0.270   0.273
    66.10    0.288   0.277   0.278   0.274   0.259   0.267   0.264   0.273   0.282   0.274   0.263   0.266   0.283   0.272   0.271   0.259   0.257   0.250   0.260   0.252   0.272   0.270   0.267   0.262   0.255   0.259   0.252   0.273   0.271   0.268   0.266   0.266   0.278   0.269   0.275
    61.45    0.280   0.278   0.276   0.276   0.255   0.261   0.257   0.266   0.269   0.268   0.260   0.267   0.270   0.252   0.264   0.257   0.258   0.259   0.260   0.268   0.260   0.275   0.270   0.261   0.256   0.257   0.252   0.259   0.267   0.263   0.269   0.275   0.278   0.278   0.272
    56.80    0.285   0.286   0.280   0.267   0.248   0.252   0.256   0.263   0.264   0.259   0.266   0.262   0.273   0.267   0.260   0.255   0.263   0.263   0.256   0.263   0.264   0.267   0.263   0.268   0.268   0.276   0.257   0.259   0.249   0.258   0.264   0.261   0.269   0.275   0.271
    52.15    0.275   0.278   0.276   0.272   0.262   0.255   0.240   0.249   0.261   0.258   0.264   0.264   0.273   0.267   0.264   0.258   0.260   0.268   0.277   0.273   0.263   0.262   0.259   0.265   0.269   0.273   0.265   0.261   0.255   0.243   0.263   0.262   0.259   0.267   0.267
    47.50    0.285   0.264   0.268   0.268   0.263   0.259   0.242   0.238   0.248   0.252   0.262   0.269   0.277   0.271   0.254   0.268   0.267   0.267   0.266   0.277   0.265   0.269   0.273   0.269   0.279   0.274   0.274   0.263   0.258   0.265   0.273   0.251   0.253   0.269   0.269
    42.85    0.282   0.273   0.265   0.272   0.261   0.272   0.248   0.244   0.258   0.256   0.265   0.266   0.274   0.276   0.264   0.260   0.281   0.267   0.276   0.275   0.278   0.276   0.287   0.276   0.276   0.277   0.285   0.275   0.280   0.273   0.270   0.249   0.251   0.265   0.255
    38.20    0.285   0.272   0.262   0.268   0.262   0.268   0.253   0.244   0.254   0.257   0.261   0.273   0.270   0.279   0.279   0.258   0.268   0.279   0.284   0.275   0.272   0.271   0.274   0.282   0.271   0.276   0.273   0.291   0.273   0.278   0.258   0.250   0.254   0.262   0.252
    33.55    0.283   0.270   0.273   0.266   0.265   0.263   0.263   0.239   0.255   0.257   0.259   0.275   0.279   0.268   0.270   0.272   0.287   0.278   0.287   0.283   0.275   0.286   0.274   0.271   0.271   0.261   0.270   0.280   0.258   0.258   0.261   0.260   0.257   0.265   0.258
    28.90    0.274   0.268   0.263   0.263   0.268   0.263   0.248   0.249   0.253   0.254   0.261   0.267   0.289   0.293   0.292   0.282   0.297   0.296   0.296   0.285   0.287   0.295   0.278   0.275   0.267   0.268   0.275   0.287   0.261   0.263   0.263   0.254   0.254   0.262   0.261
    24.25    0.269   0.268   0.258   0.259   0.262   0.269   0.260   0.266   0.266   0.266   0.265   0.266   0.288   0.297   0.289   0.295   0.301   0.290   0.282   0.282   0.271   0.275   0.280   0.272   0.261   0.276   0.278   0.279   0.268   0.273   0.271   0.258   0.248   0.256   0.260
    19.60    0.266   0.279   0.277   0.258   0.274   0.261   0.268   0.257   0.271   0.261   0.271   0.269   0.286   0.289   0.289   0.282   0.288   0.274   0.274   0.270   0.274   0.266   0.276   0.268   0.274   0.273   0.284   0.271   0.260   0.262   0.264   0.259   0.241   0.244   0.258
    14.95    0.267   0.285   0.276   0.278   0.272   0.287   0.286   0.272   0.268   0.267   0.279   0.275   0.284   0.275   0.271   0.271   0.281   0.279   0.259   0.254   0.274   0.260   0.263   0.259   0.265   0.270   0.264   0.263   0.261   0.256   0.247   0.243   0.230   0.236   0.256
    10.30    0.268   0.263   0.287   0.286   0.284   0.283   0.285   0.270   0.280   0.264   0.262   0.266   0.276   0.266   0.262   0.259   0.279   0.266   0.252   0.257   0.268   0.261   0.264   0.266   0.267   0.252   0.242   0.256   0.257   0.256   0.242   0.235   0.246   0.251   0.259
     5.65    0.265   0.274   0.266   0.274   0.282   0.287   0.279   0.271   0.263   0.266   0.272   0.269   0.268   0.260   0.255   0.248   0.264   0.264   0.256   0.257   0.250   0.262   0.261   0.278   0.264   0.263   0.247   0.258   0.253   0.254   0.247   0.252   0.252   0.262   0.267
     1.00    0.271   0.266   0.272   0.262   0.270   0.279   0.265   0.263   0.261   0.263   0.258   0.266   0.266   0.265   0.247   0.249   0.241   0.248   0.247   0.257   0.248   0.258   0.270   0.281   0.261   0.248   0.259   0.252   0.269   0.260   0.252   0.274   0.266   0.279   0.278

   Height   Standard deviation at grid points for the w component:
   168.40    0.193   0.199   0.195   0.196   0.189   0.192   0.194   0.193   0.189   0.186   0.185   0.192   0.180   0.176   0.184   0.188   0.183   0.188   0.190   0.190   0.188   0.183   0.190   0.187   0.180   0.183   0.187   0.188   0.182   0.178   0.178   0.183   0.189   0.189   0.193
   163.75    0.187   0.195   0.187   0.190   0.184   0.191   0.191   0.189   0.182   0.188   0.183   0.188   0.186   0.182   0.185   0.186   0.191   0.185   0.184   0.185   0.186   0.180   0.184   0.189   0.184   0.188   0.190   0.187   0.183   0.180   0.186   0.189   0.189   0.190   0.193
   159.10    0.189   0.184   0.185   0.193   0.190   0.194   0.198   0.195   0.190   0.183   0.188   0.192   0.188   0.192   0.194   0.186   0.181   0.181   0.183   0.184   0.189   0.181   0.188   0.181   0.185   0.190   0.190   0.193   0.190   0.177   0.184   0.190   0.190   0.190   0.189
   154.45    0.180   0.182   0.183   0.193   0.192   0.196   0.189   0.183   0.183   0.185   0.183   0.186   0.188   0.183   0.189   0.185   0.176   0.178   0.183   0.186   0.188   0.186   0.190   0.185   0.187   0.193   0.195   0.190   0.189   0.188   0.184   0.189   0.190   0.187   0.186
   149.80    0.188   0.185   0.185   0.187   0.188   0.189   0.184   0.185   0.184   0.179   0.182   0.187   0.185   0.182   0.184   0.183   0.181   0.180   0.178   0.191   0.192   0.189   0.193   0.195   0.188   0.183   0.190   0.192   0.187   0.196   0.190   0.195   0.193   0.195   0.192
   145.15    0.189   0.184   0.190   0.192   0.189   0.186   0.177   0.183   0.178   0.178   0.182   0.182   0.188   0.183   0.181   0.180   0.183   0.183   0.185   0.195   0.192   0.195   0.192   0.188   0.183   0.178   0.188   0.191   0.188   0.184   0.187   0.192   0.194   0.198   0.197
   140.50    0.185   0.184   0.188   0.184   0.181   0.174   0.179   0.187   0.188   0.182   0.184   0.184   0.180   0.182   0.186   0.184   0.186   0.184   0.187   0.194   0.187   0.186   0.186   0.187   0.184   0.192   0.186   0.184   0.184   0.183   0.185   0.187   0.188   0.193   0.194
   135.85    0.182   0.182   0.179   0.183   0.174   0.176   0.182   0.184   0.184   0.190   0.182   0.187   0.183   0.184   0.180   0.186   0.184   0.183   0.190   0.186   0.185   0.189   0.189   0.189   0.185   0.189   0.183   0.187   0.180   0.178   0.184   0.185   0.192   0.196   0.195
   131.20    0.184   0.184   0.189   0.191   0.185   0.177   0.178   0.183   0.189   0.186   0.190   0.185   0.187   0.186   0.174   0.175   0.181   0.184   0.184   0.187   0.185   0.184   0.185   0.187   0.187   0.184   0.176   0.181   0.184   0.184   0.186   0.189   0.192   0.196   0.193
   126.55    0.184   0.179   0.180   0.189   0.184   0.178   0.176   0.176   0.176   0.179   0.184   0.183   0.192   0.189   0.183   0.183   0.185   0.185   0.190   0.189   0.188   0.180   0.183   0.186   0.189   0.186   0.183   0.181   0.179   0.188   0.178   0.176   0.180   0.186   0.190
   121.90    0.181   0.178   0.183   0.183   0.183   0.178   0.180   0.183   0.188   0.184   0.190   0.186   0.188   0.189   0.183   0.187   0.195   0.193   0.189   0.188   0.184   0.184   0.190   0.190   0.181   0.185   0.180   0.182   0.188   0.184   0.181   0.177   0.180   0.186   0.187
   117.25    0.178   0.181   0.180   0.181   0.184   0.182   0.187   0.182   0.182   0.179   0.181   0.186   0.188   0.189   0.187   0.183   0.191   0.192   0.189   0.189   0.187   0.186   0.183   0.186   0.189   0.187   0.179   0.183   0.195   0.190   0.181   0.183   0.184   0.183   0.184
   112.60    0.182   0.186   0.185   0.180   0.183   0.178   0.186   0.185   0.182   0.182   0.179   0.199   0.200   0.200   0.191   0.188   0.193   0.192   0.192   0.191   0.188   0.180   0.188   0.188   0.191   0.185   0.185   0.189   0.197   0.192   0.188   0.177   0.181   0.183   0.187
   107.95    0.188   0.192   0.198   0.188   0.186   0.191   0.185   0.191   0.191   0.177   0.189   0.203   0.195   0.191   0.191   0.192   0.192   0.192   0.188   0.193   0.190   0.186   0.190   0.186   0.184   0.187   0.190   0.190   0.189   0.191   0.190   0.185   0.186   0.183   0.186
   103.30    0.188   0.191   0.188   0.195   0.184   0.187   0.188   0.194   0.196   0.188   0.184   0.192   0.192   0.195   0.197   0.193   0.190   0.193   0.188   0.188   0.193   0.183   0.182   0.184   0.186   0.181   0.187   0.186   0.185   0.187   0.191   0.192   0.192   0.194   0.184
    98.65    0.190   0.185   0.186   0.190   0.185   0.189   0.188   0.191   0.196   0.189   0.191   0.192   0.190   0.195   0.197   0.191   0.191   0.206   0.199   0.190   0.193   0.181   0.178   0.180   0.185   0.186   0.185   0.189   0.188   0.190   0.193   0.190   0.195   0.197   0.195
    94.00    0.188   0.182   0.184   0.181   0.185   0.194   0.192   0.192   0.202   0.199   0.193   0.187   0.185   0.187   0.191   0.198   0.190   0.198   0.195   0.193   0.185   0.184   0.182   0.188   0.194   0.195   0.190   0.184   0.191   0.195   0.193   0.189   0.188   0.193   0.180
    89.35    0.188   0.191   0.188   0.182   0.181   0.185   0.188   0.197   0.197   0.194   0.192   0.187   0.189   0.182   0.189   0.191   0.195   0.190   0.191   0.188   0.180   0.179   0.183   0.187   0.188   0.186   0.192   0.188   0.184   0.188   0.187   0.196   0.188   0.187   0.187
    84.70    0.198   0.192   0.191   0.188   0.189   0.182   0.188   0.200   0.199   0.201   0.196   0.186   0.190   0.190   0.189   0.191   0.191   0.189   0.185   0.191   0.186   0.182   0.186   0.190   0.189   0.200   0.190   0.192   0.183   0.191   0.191   0.189   0.190   0.192   0.192
    80.05    0.188   0.189   0.186   0.181   0.184   0.187   0.184   0.194   0.194   0.194   0.197   0.194   0.191   0.189   0.186   0.188   0.191   0.187   0.188   0.190   0.182   0.180   0.180   0.187   0.192   0.198   0.192   0.190   0.189   0.192   0.184   0.193   0.193   0.198   0.194
    75.40    0.194   0.183   0.183   0.186   0.180   0.194   0.194   0.192   0.194   0.188   0.193   0.185   0.191   0.193   0.191   0.188   0.196   0.191   0.188   0.183   0.184   0.184   0.191   0.193   0.194   0.194   0.198   0.201   0.190   0.195   0.189   0.185   0.193   0.196   0.191
    70.75    0.189   0.189   0.185   0.184   0.181   0.192   0.194   0.185   0.185   0.185   0.188   0.194   0.190   0.187   0.190   0.201   0.194   0.189   0.189   0.184   0.175   0.185   0.194   0.196   0.198   0.196   0.192   0.193   0.196   0.196   0.190   0.183   0.194   0.197   0.181
    66.10    0.183   0.188   0.192   0.191   0.184   0.190   0.187   0.186   0.181   0.186   0.183   0.189   0.188   0.189   0.190   0.187   0.192   0.198   0.187   0.191   0.188   0.189   0.193   0.191   0.194   0.192   0.195   0.193   0.193   0.196   0.197   0.192   0.193   0.196   0.185
    61.45    0.188   0.188   0.188   0.187   0.184   0.188   0.187   0.191   0.185   0.186   0.187   0.183   0.181   0.185   0.190   0.188   0.198   0.194   0.195   0.194   0.191   0.188   0.187   0.188   0.178   0.185   0.192   0.190   0.188   0.191   0.200   0.200   0.187   0.194   0.190
    56.80    0.183   0.186   0.186   0.187   0.186   0.181   0.188   0.191   0.190   0.182   0.183   0.181   0.184   0.190   0.189   0.188   0.189   0.191   0.199   0.188   0.187   0.187   0.181   0.182   0.184   0.190   0.189   0.191   0.192   0.192   0.197   0.194   0.185   0.193   0.193
    52.15    0.193   0.195   0.188   0.184   0.183   0.194   0.193   0.195   0.192   0.184   0.185   0.182   0.191   0.198   0.198   0.188   0.182   0.193   0.196   0.201   0.191   0.194   0.184   0.186   0.187   0.196   0.196   0.189   0.192   0.192   0.199   0.191   0.190   0.193   0.193
    47.50    0.197   0.192   0.190   0.179   0.175   0.182   0.186   0.188   0.187   0.182   0.186   0.184   0.192   0.198   0.200   0.189   0.196   0.187   0.193   0.197   0.199   0.194   0.193   0.187   0.194   0.192   0.194   0.194   0.193   0.195   0.199   0.189   0.189   0.192   0.198
    42.85    0.190   0.195   0.193   0.178   0.185   0.179   0.184   0.184   0.184   0.182   0.186   0.186   0.193   0.194   0.187   0.189   0.193   0.195   0.198   0.203   0.197   0.196   0.190   0.191   0.198   0.196   0.198   0.197   0.192   0.193   0.198   0.186   0.193   0.190   0.193
    38.20    0.195   0.199   0.190   0.186   0.178   0.182   0.184   0.185   0.187   0.185   0.186   0.193   0.194   0.192   0.186   0.193   0.194   0.188   0.192   0.197   0.203   0.196   0.199   0.196   0.199   0.206   0.198   0.194   0.192   0.197   0.194   0.191   0.185   0.190   0.192
    33.55    0.195   0.195   0.195   0.190   0.179   0.182   0.190   0.192   0.185   0.184   0.190   0.189   0.192   0.191   0.180   0.183   0.189   0.192   0.198   0.201   0.203   0.200   0.196   0.191   0.196   0.199   0.193   0.194   0.191   0.190   0.197   0.197   0.193   0.190   0.194
    28.90    0.191   0.190   0.193   0.188   0.176   0.179   0.186   0.187   0.187   0.187   0.194   0.197   0.197   0.191   0.187   0.181   0.185   0.180   0.202   0.196   0.197   0.203   0.196   0.199   0.195   0.199   0.199   0.196   0.197   0.197   0.203   0.194   0.194   0.185   0.189
    24.25    0.188   0.192   0.191   0.194   0.182   0.184   0.186   0.191   0.196   0.198   0.195   0.189   0.194   0.194   0.189   0.190   0.176   0.176   0.194   0.201   0.197   0.200   0.198   0.201   0.192   0.200   0.197   0.199   0.198   0.195   0.198   0.201   0.193   0.190   0.187
    19.60    0.186   0.187   0.193   0.196   0.195   0.189   0.192   0.196   0.194   0.201   0.198   0.196   0.192   0.190   0.189   0.187   0.188   0.186   0.187   0.204   0.201   0.193   0.198   0.198   0.188   0.199   0.204   0.201   0.195   0.198   0.201   0.195   0.195   0.189   0.179
    14.95    0.197   0.195   0.201   0.201   0.201   0.196   0.191   0.192   0.199   0.193   0.199   0.201   0.199   0.187   0.194   0.184   0.182   0.193   0.195   0.194   0.202   0.191   0.198   0.195   0.199   0.198   0.197   0.198   0.194   0.189   0.192   0.191   0.184   0.190   0.187
    10.30    0.195   0.197   0.200   0.197   0.200   0.204   0.198   0.200   0.197   0.194   0.199   0.195   0.190   0.194   0.190   0.186   0.192   0.192   0.194   0.188   0.188   0.198   0.191   0.188   0.191   0.194   0.193   0.193   0.194   0.190   0.184   0.191   0.193   0.183   0.189
     5.65    0.194   0.195   0.198   0.200   0.195   0.199   0.199   0.194   0.195   0.199   0.197   0.194   0.190   0.185   0.186   0.180   0.187   0.190   0.190   0.187   0.186   0.192   0.190   0.185   0.186   0.194   0.193   0.183   0.189   0.183   0.182   0.184   0.185   0.183   0.180
     1.00    0.189   0.194   0.200   0.199   0.199   0.199   0.197   0.194   0.191   0.193   0.196   0.185   0.183   0.182   0.182   0.189   0.189   0.187   0.192   0.194   0.192   0.192   0.187   0.192   0.187   0.189   0.183   0.189   0.183   0.186   0.180   0.182   0.189   0.186   0.178

   Mean standard deviation across all grid points:
      u component:    0.474 m/s
      v component:    0.275 m/s
      w component:    0.189 m/s


U-component (X) statistics from the interpolated hub point:

   Mean =   9.9913 m/s
   TI   =   4.2003 %


Processing complete.  6032 CPU seconds used.
