
This summary file was generated by TurbSim (from OpenFAST-v3.5.3) on 20-Apr-2025 at 05:36:08.


Runtime Options:

**********  Random seed #1
    RANLUX  Type of random number generator
         F  Output binary HH turbulence parameters?
         F  Output formatted turbulence parameters?
         F  Output AeroDyn HH files?
         T  Output AeroDyn FF files?
         F  Output BLADED FF files?
         F  Output tower data?
         F  Output HAWC FF files?
         F  Output formatted FF files?
         T  Output coherent turbulence time step file?
 0 -  NONE  IEC turbulence models scaled to exact specified standard deviation


Turbine/Model Specifications:

        37  Vertical grid-point matrix dimension
        35  Horizontal grid-point matrix dimension
     0.250  Time step [seconds]
   900.000  Analysis time [seconds]
   900.000  Usable output time [seconds]
    89.350  Hub height [m]
   167.400  Grid height [m]
   158.100  Grid width [m]
     0.000  Vertical flow angle [degrees]
     0.000  Horizontal flow angle [degrees]


Meteorological Boundary Conditions:

    TIMESR  User-input time series spectral model
       N/A  IEC standard
       N/A  IEC turbulence characteristic
       N/A  IEC turbulence type
       N/A  IEC Extreme Turbulence Model (ETM) "c" parameter [m/s]
       PL   Wind profile type
    90.000  Reference height [m]
    10.000  Reference wind speed [m/s]
       N/A  Jet height [m]
     0.120  Power law exponent
     0.030  Surface roughness length [m]


Non-IEC Meteorological Boundary Conditions:

    45.000  Site latitude [degrees]
     0.050  Gradient Richardson number
     0.480  Friction or shear velocity [m/s]
       N/A  Mixing layer depth [m]
       N/A  Mean hub u'w' Reynolds stress
       N/A  Mean hub u'v' Reynolds stress
       N/A  Mean hub v'w' Reynolds stress


Spatial Coherence Models:

       IEC  u-component coherence model
       IEC  v-component coherence model
       IEC  w-component coherence model
(   12.000, 0.353E-03)  u-component coherence parameters
(   12.000, 0.353E-03)  v-component coherence parameters
(   12.000, 0.353E-03)  w-component coherence parameters
       N/A  Coherence exponent


Coherent Turbulence Scaling Parameters:

.\EventData
            Name of the path containing the coherent turbulence data files
       dns  Type of coherent turbulence data files
     1.000  Disturbance scale (ratio of wave height to rotor diameter)
     0.500  Fractional location of tower centerline from right
     0.500  Fractional location of hub height from the bottom of the dataset
    30.000  Minimum start time for coherent structures [seconds]


Profiles from User-Defined Time-Series Input:

  Height   Wind Speed   Horizontal Angle   Vertical Angle
   (m)        (m/s)          (deg)              (deg)    
  ------   ----------   ----------------   --------------
   94.00      10.00          -0.63               -0.00


You have requested that the following file(s) be generated:

   /kfs3/scratch/agupta/Projects/RL_Incubator/FinalRuns_Veer/Seed4/./FFSim_Seed4/Cond00_v10.0_PL0.12_TI4.0/Case1_wdirp02/Seed_3/TurbSim/HighT18.bts (AeroDyn/TurbSim full-field wind file)


Turbulence Simulation Scaling Parameter Summary:

   Turbulence model used                            =  User-input time series
   Gradient Richardson number                       =    0.050
   Monin-Obukhov (M-O) z/L parameter                =    0.067
   Monin-Obukhov (M-O) length scale                 = 1340.250 m
   Mean wind speed at hub height                    =    9.991 m/s

   Wind profile type                                =  Power law
   Power law exponent                               =    0.120
   Mean shear across rotor disk                     =    0.019 (m/s)/m
   Assumed rotor diameter                           =  158.100 m
   Surface roughness length                         =    0.030 m

   Nyquist frequency of turbulent wind field        =    2.000 Hz

   Number of time steps in the FFT                  =     3600
   Number of time steps output                      =     3600
   Number of points simulated                       =     1296


Mean Flow Angles:

   Vertical   =   0.0 degrees
   Horizontal =   0.0 degrees

Mean Wind Speed Profile:

   Height    Wind Speed   Horizontal Angle  Vertical Angle  U-comp (X)   V-comp (Y)   W-comp (Z)
     (m)        (m/s)         (degrees)       (degrees)       (m/s)        (m/s)        (m/s)   
   ------    ----------   ----------------  --------------  ----------   ----------   ----------
    168.4       10.78            0.00            0.00         10.78         0.00         0.00
    163.7       10.74            0.00            0.00         10.74         0.00         0.00
    159.1       10.71            0.00            0.00         10.71         0.00         0.00
    154.4       10.67            0.00            0.00         10.67         0.00         0.00
    149.8       10.63            0.00            0.00         10.63         0.00         0.00
    145.1       10.59            0.00            0.00         10.59         0.00         0.00
    140.5       10.55            0.00            0.00         10.55         0.00         0.00
    135.8       10.51            0.00            0.00         10.51         0.00         0.00
    131.2       10.46            0.00            0.00         10.46         0.00         0.00
    126.5       10.42            0.00            0.00         10.42         0.00         0.00
    121.9       10.37            0.00            0.00         10.37         0.00         0.00
    117.2       10.32            0.00            0.00         10.32         0.00         0.00
    112.6       10.27            0.00            0.00         10.27         0.00         0.00
    107.9       10.22            0.00            0.00         10.22         0.00         0.00
    103.3       10.17            0.00            0.00         10.17         0.00         0.00
     98.6       10.11            0.00            0.00         10.11         0.00         0.00
     94.0       10.05            0.00            0.00         10.05         0.00         0.00
     89.3        9.99            0.00            0.00          9.99         0.00         0.00
     84.7        9.93            0.00            0.00          9.93         0.00         0.00
     80.0        9.86            0.00            0.00          9.86         0.00         0.00
     75.4        9.79            0.00            0.00          9.79         0.00         0.00
     70.7        9.72            0.00            0.00          9.72         0.00         0.00
     66.1        9.64            0.00            0.00          9.64         0.00         0.00
     61.4        9.55            0.00            0.00          9.55         0.00         0.00
     56.8        9.46            0.00            0.00          9.46         0.00         0.00
     52.1        9.37            0.00            0.00          9.37         0.00         0.00
     47.5        9.26            0.00            0.00          9.26         0.00         0.00
     42.8        9.15            0.00            0.00          9.15         0.00         0.00
     38.2        9.02            0.00            0.00          9.02         0.00         0.00
     33.5        8.88            0.00            0.00          8.88         0.00         0.00
     28.9        8.73            0.00            0.00          8.73         0.00         0.00
     24.2        8.54            0.00            0.00          8.54         0.00         0.00
     19.6        8.33            0.00            0.00          8.33         0.00         0.00
     14.9        8.06            0.00            0.00          8.06         0.00         0.00
     10.3        7.71            0.00            0.00          7.71         0.00         0.00
      5.6        7.17            0.00            0.00          7.17         0.00         0.00
      1.0        5.83            0.00            0.00          5.83         0.00         0.00


Harvested Random Seeds after Generation of the Random Numbers:

     65026800 K 1
            0 K 2


Hub-Height Simulated Turbulence Statistical Summary:

   Type of Wind        Min (m/s)   Mean (m/s)    Max (m/s)  Sigma (m/s)       TI (%)
   ----------------    ---------   ----------    ---------  -----------       ------
   Longitudinal (u)         8.96         9.99        11.24        0.377        3.775
   Lateral (v)             -0.97        -0.00         1.34        0.322        3.225
   Vertical (w)            -0.66        -0.00         0.66        0.192        1.923
   U component              8.96         9.99        11.24        0.377        3.775
   V component             -0.97        -0.00         1.34        0.322        3.225
   W component             -0.66        -0.00         0.66        0.192        1.923
   Horizontal (U&V)         8.96        10.00        11.24        0.376        3.766
   Total                    8.97        10.00        11.24        0.376        3.764

                       Min Reynolds     Mean Reynolds    Max Reynolds    Correlation
   Product             Stress (m/s)^2   Stress (m/s)^2   Stress (m/s)^2  Coefficient
   ----------------    --------------   --------------   --------------  -----------
   u'w'                     -0.704            -0.008             0.378        -0.111
   u'v'                     -0.698             0.005             0.642         0.041
   v'w'                     -0.340             0.009             0.414         0.141


   Friction Velocity (Ustar)  =      0.090 m/s
   Maximum Instantaneous TKE  =      0.990 (m/s)^2
   Maximum Instantaneous CTKE =      0.361 (m/s)^2


Grid Point Variance Summary:

   Y-coord  -79.05  -74.40  -69.75  -65.10  -60.45  -55.80  -51.15  -46.50  -41.85  -37.20  -32.55  -27.90  -23.25  -18.60  -13.95   -9.30   -4.65    0.00    4.65    9.30   13.95   18.60   23.25   27.90   32.55   37.20   41.85   46.50   51.15   55.80   60.45   65.10   69.75   74.40   79.05

   Height   Standard deviation at grid points for the u component:
   168.40    0.360   0.368   0.358   0.391   0.381   0.371   0.387   0.368   0.355   0.345   0.356   0.375   0.380   0.375   0.380   0.371   0.382   0.401   0.377   0.360   0.367   0.383   0.402   0.408   0.373   0.352   0.352   0.346   0.357   0.351   0.362   0.357   0.370   0.365   0.373
   163.75    0.359   0.377   0.388   0.401   0.376   0.391   0.364   0.353   0.364   0.374   0.351   0.364   0.391   0.391   0.383   0.376   0.408   0.400   0.390   0.388   0.404   0.407   0.402   0.391   0.394   0.371   0.352   0.367   0.391   0.382   0.376   0.362   0.378   0.374   0.380
   159.10    0.370   0.365   0.393   0.399   0.373   0.398   0.365   0.346   0.359   0.373   0.365   0.358   0.401   0.392   0.412   0.383   0.403   0.395   0.390   0.404   0.388   0.382   0.396   0.410   0.387   0.362   0.363   0.341   0.357   0.362   0.351   0.375   0.384   0.379   0.372
   154.45    0.368   0.382   0.374   0.402   0.400   0.407   0.392   0.389   0.360   0.387   0.372   0.376   0.396   0.396   0.393   0.376   0.373   0.400   0.377   0.358   0.372   0.383   0.406   0.386   0.367   0.339   0.332   0.348   0.340   0.353   0.380   0.406   0.378   0.382   0.370
   149.80    0.386   0.396   0.386   0.395   0.386   0.382   0.383   0.383   0.373   0.382   0.375   0.362   0.381   0.409   0.390   0.390   0.376   0.377   0.368   0.366   0.342   0.387   0.378   0.387   0.368   0.326   0.317   0.338   0.345   0.352   0.388   0.382   0.376   0.359   0.353
   145.15    0.419   0.400   0.389   0.404   0.407   0.410   0.392   0.401   0.412   0.406   0.380   0.363   0.374   0.388   0.381   0.391   0.342   0.370   0.361   0.365   0.376   0.368   0.375   0.362   0.356   0.339   0.334   0.332   0.329   0.361   0.376   0.383   0.365   0.349   0.355
   140.50    0.405   0.422   0.413   0.413   0.408   0.408   0.413   0.413   0.412   0.392   0.372   0.360   0.341   0.372   0.370   0.375   0.358   0.373   0.381   0.379   0.382   0.367   0.362   0.350   0.356   0.334   0.340   0.324   0.324   0.373   0.349   0.373   0.379   0.358   0.335
   135.85    0.428   0.415   0.419   0.408   0.399   0.393   0.419   0.401   0.395   0.397   0.408   0.403   0.374   0.368   0.388   0.384   0.378   0.386   0.378   0.371   0.369   0.347   0.340   0.320   0.327   0.313   0.332   0.347   0.352   0.367   0.389   0.381   0.367   0.361   0.341
   131.20    0.419   0.401   0.401   0.387   0.389   0.401   0.418   0.390   0.396   0.394   0.401   0.384   0.373   0.375   0.388   0.371   0.390   0.354   0.359   0.358   0.337   0.335   0.363   0.327   0.311   0.338   0.343   0.346   0.363   0.355   0.355   0.357   0.347   0.346   0.365
   126.55    0.389   0.389   0.383   0.367   0.360   0.394   0.411   0.407   0.403   0.388   0.384   0.385   0.395   0.384   0.370   0.374   0.354   0.343   0.345   0.359   0.369   0.354   0.355   0.344   0.327   0.356   0.352   0.341   0.370   0.372   0.352   0.357   0.323   0.348   0.362
   121.90    0.400   0.408   0.418   0.387   0.364   0.379   0.389   0.382   0.376   0.374   0.385   0.364   0.383   0.403   0.384   0.371   0.363   0.344   0.342   0.356   0.360   0.338   0.349   0.325   0.343   0.362   0.358   0.354   0.345   0.367   0.358   0.351   0.356   0.351   0.343
   117.25    0.415   0.411   0.396   0.375   0.369   0.369   0.372   0.376   0.387   0.393   0.387   0.366   0.385   0.375   0.384   0.367   0.367   0.373   0.358   0.367   0.382   0.347   0.350   0.332   0.346   0.361   0.345   0.358   0.380   0.359   0.373   0.361   0.364   0.341   0.347
   112.60    0.399   0.391   0.382   0.394   0.379   0.379   0.375   0.393   0.386   0.406   0.401   0.381   0.405   0.389   0.397   0.404   0.369   0.389   0.378   0.394   0.390   0.384   0.340   0.338   0.352   0.349   0.354   0.346   0.382   0.379   0.365   0.356   0.345   0.344   0.361
   107.95    0.386   0.381   0.384   0.383   0.386   0.387   0.367   0.393   0.398   0.406   0.409   0.406   0.402   0.377   0.401   0.398   0.422   0.404   0.390   0.393   0.381   0.401   0.358   0.342   0.355   0.344   0.353   0.342   0.380   0.359   0.363   0.330   0.323   0.309   0.312
   103.30    0.365   0.375   0.367   0.393   0.366   0.354   0.366   0.369   0.375   0.395   0.397   0.407   0.397   0.385   0.399   0.413   0.432   0.412   0.389   0.397   0.388   0.381   0.369   0.327   0.342   0.336   0.325   0.340   0.358   0.372   0.339   0.346   0.329   0.300   0.325
    98.65    0.372   0.380   0.403   0.387   0.377   0.344   0.370   0.372   0.365   0.388   0.382   0.406   0.417   0.402   0.389   0.392   0.396   0.370   0.395   0.391   0.394   0.382   0.360   0.334   0.347   0.343   0.331   0.336   0.337   0.348   0.325   0.332   0.349   0.316   0.333
    94.00    0.400   0.385   0.408   0.392   0.386   0.369   0.387   0.400   0.386   0.376   0.393   0.414   0.414   0.404   0.370   0.404   0.383   0.400   0.409   0.380   0.372   0.361   0.331   0.352   0.342   0.317   0.333   0.341   0.343   0.340   0.315   0.312   0.336   0.356   0.340
    89.35    0.399   0.415   0.405   0.403   0.386   0.385   0.394   0.392   0.384   0.381   0.401   0.397   0.421   0.432   0.394   0.408   0.397   0.377   0.380   0.375   0.376   0.355   0.357   0.326   0.323   0.315   0.339   0.328   0.329   0.336   0.315   0.314   0.334   0.359   0.351
    84.70    0.406   0.394   0.379   0.383   0.386   0.382   0.383   0.381   0.394   0.421   0.419   0.412   0.412   0.419   0.408   0.372   0.383   0.365   0.359   0.368   0.362   0.370   0.337   0.302   0.318   0.319   0.325   0.323   0.311   0.340   0.327   0.318   0.346   0.366   0.344
    80.05    0.407   0.416   0.394   0.376   0.362   0.373   0.373   0.388   0.402   0.399   0.419   0.411   0.405   0.396   0.395   0.375   0.353   0.332   0.329   0.344   0.361   0.341   0.323   0.295   0.308   0.313   0.330   0.339   0.332   0.349   0.345   0.344   0.356   0.364   0.353
    75.40    0.421   0.403   0.392   0.386   0.374   0.372   0.357   0.390   0.418   0.406   0.389   0.397   0.398   0.393   0.377   0.368   0.343   0.346   0.341   0.333   0.348   0.325   0.312   0.298   0.285   0.328   0.340   0.348   0.344   0.330   0.342   0.359   0.360   0.354   0.361
    70.75    0.397   0.386   0.371   0.390   0.376   0.368   0.365   0.363   0.395   0.406   0.376   0.374   0.387   0.370   0.371   0.365   0.365   0.358   0.341   0.344   0.362   0.358   0.359   0.326   0.329   0.327   0.320   0.321   0.337   0.329   0.329   0.353   0.358   0.347   0.342
    66.10    0.388   0.381   0.393   0.398   0.393   0.378   0.338   0.348   0.378   0.373   0.356   0.368   0.381   0.381   0.374   0.360   0.362   0.362   0.350   0.349   0.364   0.358   0.362   0.350   0.342   0.330   0.325   0.327   0.327   0.317   0.319   0.349   0.361   0.358   0.345
    61.45    0.397   0.367   0.387   0.370   0.382   0.372   0.333   0.343   0.357   0.348   0.345   0.336   0.363   0.375   0.375   0.362   0.342   0.363   0.337   0.346   0.353   0.355   0.360   0.387   0.357   0.339   0.343   0.351   0.320   0.323   0.342   0.353   0.367   0.357   0.317
    56.80    0.394   0.383   0.393   0.390   0.367   0.371   0.350   0.345   0.349   0.330   0.323   0.319   0.335   0.339   0.336   0.333   0.327   0.335   0.345   0.321   0.323   0.347   0.355   0.382   0.357   0.367   0.354   0.341   0.338   0.321   0.328   0.363   0.363   0.338   0.314
    52.15    0.372   0.363   0.379   0.374   0.359   0.359   0.349   0.379   0.358   0.337   0.337   0.340   0.327   0.349   0.319   0.315   0.327   0.300   0.315   0.324   0.332   0.356   0.353   0.358   0.341   0.346   0.336   0.328   0.353   0.334   0.341   0.352   0.328   0.328   0.309
    47.50    0.347   0.339   0.330   0.365   0.352   0.343   0.366   0.385   0.380   0.351   0.325   0.330   0.326   0.333   0.333   0.329   0.297   0.296   0.318   0.319   0.312   0.329   0.329   0.340   0.353   0.337   0.323   0.326   0.328   0.322   0.341   0.337   0.326   0.324   0.333
    42.85    0.374   0.356   0.374   0.354   0.357   0.365   0.376   0.378   0.372   0.384   0.342   0.319   0.304   0.306   0.306   0.313   0.296   0.308   0.310   0.318   0.302   0.312   0.301   0.306   0.316   0.328   0.315   0.333   0.321   0.320   0.326   0.313   0.315   0.315   0.301
    38.20    0.376   0.368   0.372   0.370   0.373   0.374   0.397   0.392   0.380   0.376   0.353   0.323   0.306   0.299   0.308   0.295   0.303   0.308   0.333   0.310   0.323   0.300   0.301   0.306   0.318   0.308   0.309   0.314   0.303   0.298   0.334   0.323   0.333   0.328   0.310
    33.55    0.385   0.376   0.379   0.381   0.386   0.392   0.400   0.401   0.370   0.369   0.352   0.311   0.312   0.306   0.291   0.285   0.293   0.320   0.327   0.319   0.328   0.296   0.301   0.308   0.316   0.333   0.322   0.311   0.303   0.302   0.329   0.317   0.342   0.313   0.322
    28.90    0.364   0.351   0.361   0.372   0.378   0.382   0.384   0.386   0.381   0.358   0.334   0.308   0.338   0.329   0.302   0.282   0.302   0.310   0.345   0.358   0.314   0.317   0.305   0.314   0.330   0.320   0.338   0.320   0.330   0.326   0.321   0.325   0.317   0.322   0.330
    24.25    0.359   0.345   0.352   0.355   0.412   0.370   0.369   0.379   0.368   0.361   0.345   0.351   0.334   0.328   0.325   0.307   0.303   0.328   0.348   0.365   0.340   0.323   0.318   0.318   0.334   0.340   0.334   0.354   0.359   0.347   0.338   0.313   0.299   0.322   0.325
    19.60    0.345   0.324   0.343   0.365   0.377   0.373   0.383   0.361   0.368   0.370   0.353   0.350   0.345   0.341   0.329   0.320   0.345   0.359   0.346   0.362   0.367   0.358   0.356   0.349   0.348   0.366   0.369   0.373   0.361   0.327   0.332   0.331   0.334   0.320   0.331
    14.95    0.362   0.331   0.339   0.336   0.373   0.386   0.370   0.375   0.366   0.371   0.371   0.353   0.356   0.334   0.330   0.343   0.338   0.367   0.361   0.369   0.380   0.382   0.365   0.323   0.342   0.365   0.377   0.373   0.380   0.352   0.337   0.332   0.320   0.323   0.331
    10.30    0.370   0.339   0.337   0.359   0.389   0.395   0.398   0.396   0.376   0.368   0.392   0.365   0.334   0.356   0.354   0.308   0.329   0.355   0.361   0.366   0.370   0.364   0.339   0.336   0.352   0.358   0.367   0.374   0.369   0.369   0.347   0.337   0.334   0.321   0.336
     5.65    0.373   0.342   0.320   0.348   0.373   0.366   0.389   0.372   0.389   0.365   0.360   0.358   0.334   0.333   0.333   0.329   0.320   0.368   0.362   0.359   0.332   0.363   0.329   0.324   0.349   0.347   0.360   0.382   0.377   0.361   0.345   0.342   0.323   0.327   0.348
     1.00    0.354   0.361   0.341   0.350   0.353   0.360   0.380   0.364   0.385   0.357   0.363   0.354   0.328   0.332   0.320   0.330   0.335   0.344   0.356   0.328   0.345   0.359   0.328   0.317   0.350   0.337   0.346   0.366   0.358   0.358   0.366   0.352   0.341   0.335   0.318

   Height   Standard deviation at grid points for the v component:
   168.40    0.328   0.338   0.326   0.332   0.330   0.334   0.347   0.360   0.368   0.393   0.378   0.363   0.361   0.348   0.340   0.337   0.356   0.359   0.367   0.357   0.349   0.329   0.331   0.306   0.308   0.313   0.316   0.320   0.323   0.341   0.351   0.343   0.341   0.343   0.345
   163.75    0.343   0.311   0.311   0.320   0.330   0.335   0.350   0.368   0.368   0.386   0.373   0.373   0.363   0.352   0.348   0.362   0.374   0.360   0.377   0.365   0.372   0.340   0.323   0.316   0.313   0.329   0.327   0.334   0.325   0.328   0.334   0.335   0.339   0.345   0.339
   159.10    0.339   0.322   0.319   0.316   0.327   0.336   0.350   0.357   0.363   0.379   0.387   0.370   0.361   0.359   0.352   0.357   0.375   0.368   0.357   0.362   0.360   0.339   0.320   0.316   0.320   0.305   0.335   0.337   0.330   0.339   0.327   0.332   0.329   0.324   0.320
   154.45    0.339   0.333   0.333   0.324   0.329   0.343   0.370   0.371   0.363   0.376   0.380   0.365   0.369   0.365   0.382   0.382   0.362   0.356   0.369   0.361   0.351   0.331   0.313   0.306   0.303   0.321   0.335   0.321   0.324   0.330   0.322   0.326   0.332   0.327   0.317
   149.80    0.341   0.335   0.327   0.328   0.337   0.352   0.352   0.386   0.384   0.370   0.359   0.378   0.381   0.382   0.383   0.387   0.381   0.362   0.360   0.347   0.353   0.337   0.315   0.300   0.309   0.310   0.309   0.313   0.319   0.315   0.315   0.310   0.320   0.318   0.317
   145.15    0.366   0.348   0.324   0.331   0.348   0.345   0.365   0.371   0.391   0.365   0.371   0.386   0.388   0.405   0.378   0.375   0.374   0.375   0.358   0.349   0.347   0.321   0.318   0.301   0.308   0.299   0.306   0.309   0.315   0.310   0.327   0.321   0.319   0.326   0.302
   140.50    0.381   0.358   0.348   0.353   0.342   0.328   0.347   0.362   0.380   0.388   0.374   0.370   0.392   0.398   0.398   0.403   0.381   0.365   0.342   0.346   0.324   0.313   0.310   0.302   0.308   0.296   0.317   0.318   0.309   0.328   0.318   0.314   0.297   0.304   0.291
   135.85    0.368   0.372   0.368   0.355   0.336   0.340   0.345   0.355   0.375   0.380   0.379   0.383   0.386   0.397   0.398   0.388   0.382   0.353   0.351   0.327   0.311   0.312   0.317   0.306   0.307   0.306   0.314   0.314   0.306   0.311   0.312   0.315   0.305   0.285   0.285
   131.20    0.348   0.358   0.372   0.364   0.334   0.316   0.336   0.329   0.351   0.371   0.380   0.368   0.396   0.402   0.402   0.390   0.378   0.354   0.348   0.316   0.330   0.330   0.313   0.315   0.311   0.302   0.313   0.308   0.301   0.299   0.314   0.315   0.294   0.277   0.284
   126.55    0.365   0.368   0.359   0.373   0.340   0.332   0.328   0.323   0.335   0.359   0.362   0.384   0.390   0.388   0.396   0.372   0.358   0.334   0.339   0.321   0.330   0.334   0.310   0.313   0.314   0.312   0.319   0.318   0.317   0.328   0.309   0.306   0.295   0.295   0.291
   121.90    0.360   0.352   0.346   0.352   0.330   0.324   0.334   0.340   0.324   0.336   0.366   0.383   0.397   0.388   0.390   0.360   0.341   0.349   0.330   0.322   0.318   0.314   0.308   0.308   0.316   0.313   0.324   0.313   0.333   0.325   0.303   0.297   0.312   0.304   0.308
   117.25    0.361   0.353   0.346   0.341   0.341   0.328   0.317   0.338   0.329   0.350   0.381   0.376   0.406   0.380   0.359   0.355   0.346   0.346   0.314   0.310   0.317   0.295   0.306   0.321   0.319   0.310   0.317   0.307   0.318   0.310   0.308   0.315   0.330   0.310   0.306
   112.60    0.369   0.364   0.354   0.356   0.361   0.314   0.308   0.328   0.342   0.360   0.379   0.378   0.388   0.374   0.358   0.344   0.339   0.324   0.321   0.320   0.332   0.301   0.294   0.286   0.296   0.315   0.323   0.311   0.313   0.314   0.300   0.309   0.320   0.315   0.310
   107.95    0.375   0.366   0.355   0.361   0.360   0.338   0.315   0.318   0.328   0.350   0.371   0.376   0.379   0.368   0.344   0.338   0.321   0.313   0.330   0.304   0.311   0.301   0.281   0.294   0.303   0.305   0.313   0.306   0.320   0.306   0.295   0.305   0.323   0.323   0.321
   103.30    0.377   0.357   0.346   0.361   0.363   0.347   0.340   0.343   0.338   0.350   0.347   0.365   0.362   0.350   0.319   0.325   0.313   0.331   0.321   0.310   0.316   0.317   0.298   0.296   0.299   0.303   0.314   0.315   0.315   0.308   0.300   0.323   0.314   0.316   0.303
    98.65    0.383   0.372   0.372   0.381   0.366   0.364   0.348   0.348   0.335   0.338   0.349   0.358   0.351   0.343   0.330   0.320   0.319   0.315   0.322   0.299   0.307   0.313   0.305   0.288   0.283   0.301   0.298   0.305   0.319   0.300   0.315   0.319   0.318   0.307   0.312
    94.00    0.388   0.371   0.370   0.378   0.387   0.376   0.376   0.377   0.344   0.347   0.351   0.343   0.355   0.327   0.330   0.325   0.319   0.317   0.327   0.318   0.301   0.309   0.303   0.302   0.283   0.289   0.282   0.307   0.309   0.299   0.314   0.313   0.313   0.312   0.320
    89.35    0.361   0.368   0.362   0.360   0.376   0.372   0.376   0.370   0.365   0.362   0.362   0.358   0.346   0.346   0.333   0.334   0.314   0.322   0.320   0.306   0.323   0.326   0.302   0.313   0.290   0.298   0.299   0.299   0.307   0.295   0.308   0.311   0.316   0.310   0.315
    84.70    0.331   0.358   0.344   0.348   0.369   0.356   0.379   0.369   0.366   0.344   0.360   0.359   0.344   0.342   0.336   0.334   0.322   0.338   0.327   0.326   0.322   0.318   0.306   0.302   0.292   0.301   0.297   0.303   0.308   0.307   0.310   0.320   0.313   0.304   0.321
    80.05    0.319   0.339   0.339   0.340   0.350   0.357   0.373   0.367   0.366   0.349   0.342   0.353   0.362   0.342   0.343   0.349   0.337   0.332   0.311   0.311   0.314   0.324   0.287   0.294   0.289   0.298   0.306   0.319   0.300   0.313   0.322   0.330   0.317   0.337   0.336
    75.40    0.324   0.336   0.342   0.348   0.336   0.341   0.367   0.361   0.363   0.353   0.348   0.346   0.356   0.337   0.345   0.338   0.337   0.309   0.328   0.321   0.321   0.320   0.302   0.278   0.277   0.265   0.289   0.300   0.315   0.317   0.323   0.326   0.317   0.317   0.315
    70.75    0.323   0.339   0.326   0.334   0.350   0.346   0.355   0.364   0.353   0.342   0.339   0.336   0.350   0.356   0.347   0.336   0.316   0.304   0.310   0.317   0.327   0.310   0.299   0.283   0.295   0.270   0.290   0.286   0.305   0.312   0.322   0.315   0.314   0.310   0.314
    66.10    0.324   0.321   0.321   0.325   0.325   0.340   0.332   0.347   0.350   0.328   0.327   0.335   0.350   0.339   0.342   0.325   0.318   0.315   0.317   0.319   0.336   0.304   0.305   0.301   0.282   0.294   0.287   0.299   0.302   0.304   0.294   0.301   0.307   0.297   0.304
    61.45    0.320   0.322   0.320   0.310   0.308   0.322   0.329   0.339   0.340   0.336   0.335   0.341   0.339   0.323   0.335   0.307   0.311   0.306   0.308   0.327   0.320   0.325   0.312   0.309   0.297   0.296   0.299   0.297   0.304   0.299   0.292   0.301   0.292   0.297   0.303
    56.80    0.320   0.321   0.318   0.308   0.314   0.321   0.322   0.325   0.340   0.339   0.343   0.337   0.329   0.327   0.332   0.305   0.294   0.310   0.307   0.317   0.311   0.323   0.303   0.302   0.317   0.324   0.307   0.309   0.306   0.305   0.285   0.282   0.291   0.301   0.304
    52.15    0.324   0.308   0.312   0.304   0.325   0.321   0.309   0.310   0.329   0.331   0.340   0.324   0.334   0.317   0.324   0.313   0.303   0.313   0.307   0.303   0.306   0.302   0.294   0.305   0.314   0.317   0.310   0.308   0.308   0.293   0.280   0.297   0.293   0.302   0.291
    47.50    0.350   0.321   0.325   0.320   0.320   0.321   0.315   0.318   0.324   0.317   0.340   0.338   0.338   0.339   0.317   0.311   0.317   0.318   0.304   0.300   0.302   0.292   0.291   0.290   0.297   0.295   0.312   0.292   0.300   0.306   0.312   0.275   0.284   0.292   0.296
    42.85    0.345   0.337   0.329   0.353   0.335   0.348   0.332   0.335   0.344   0.330   0.323   0.341   0.355   0.361   0.334   0.328   0.330   0.324   0.321   0.314   0.322   0.296   0.308   0.295   0.282   0.298   0.315   0.305   0.303   0.306   0.309   0.299   0.288   0.290   0.291
    38.20    0.354   0.333   0.334   0.345   0.328   0.332   0.333   0.334   0.341   0.333   0.339   0.350   0.359   0.350   0.325   0.317   0.321   0.326   0.329   0.323   0.327   0.306   0.300   0.303   0.280   0.279   0.300   0.311   0.306   0.315   0.312   0.302   0.302   0.307   0.317
    33.55    0.361   0.331   0.341   0.337   0.320   0.306   0.311   0.310   0.331   0.325   0.354   0.352   0.354   0.339   0.329   0.304   0.330   0.324   0.320   0.323   0.325   0.308   0.300   0.302   0.280   0.284   0.303   0.302   0.301   0.304   0.316   0.314   0.318   0.320   0.308
    28.90    0.341   0.329   0.333   0.329   0.315   0.317   0.304   0.309   0.325   0.338   0.348   0.355   0.358   0.356   0.335   0.325   0.328   0.332   0.319   0.316   0.312   0.305   0.302   0.294   0.281   0.291   0.309   0.319   0.305   0.299   0.295   0.298   0.308   0.313   0.319
    24.25    0.324   0.342   0.322   0.314   0.320   0.338   0.327   0.328   0.345   0.350   0.342   0.333   0.364   0.362   0.337   0.338   0.335   0.337   0.332   0.318   0.302   0.299   0.299   0.296   0.275   0.299   0.300   0.298   0.304   0.309   0.301   0.297   0.304   0.298   0.320
    19.60    0.324   0.336   0.328   0.306   0.318   0.326   0.341   0.340   0.342   0.336   0.356   0.360   0.375   0.371   0.354   0.344   0.360   0.355   0.318   0.307   0.296   0.295   0.290   0.289   0.286   0.280   0.296   0.299   0.308   0.314   0.313   0.309   0.297   0.300   0.316
    14.95    0.329   0.326   0.328   0.327   0.325   0.346   0.354   0.354   0.355   0.346   0.361   0.368   0.381   0.362   0.351   0.362   0.368   0.349   0.318   0.296   0.291   0.268   0.266   0.266   0.272   0.291   0.290   0.291   0.301   0.317   0.315   0.308   0.294   0.309   0.308
    10.30    0.322   0.326   0.334   0.331   0.348   0.342   0.348   0.351   0.376   0.356   0.349   0.366   0.378   0.366   0.361   0.356   0.371   0.345   0.310   0.296   0.289   0.271   0.261   0.268   0.273   0.276   0.276   0.302   0.298   0.311   0.311   0.306   0.318   0.300   0.309
     5.65    0.326   0.334   0.311   0.318   0.337   0.348   0.354   0.366   0.360   0.352   0.373   0.369   0.371   0.355   0.359   0.351   0.352   0.341   0.321   0.298   0.283   0.270   0.281   0.280   0.277   0.280   0.277   0.287   0.297   0.304   0.311   0.310   0.311   0.315   0.312
     1.00    0.325   0.310   0.304   0.307   0.330   0.340   0.339   0.348   0.351   0.355   0.361   0.373   0.359   0.368   0.354   0.338   0.310   0.338   0.313   0.308   0.294   0.281   0.282   0.291   0.281   0.284   0.291   0.291   0.305   0.305   0.312   0.325   0.300   0.310   0.321

   Height   Standard deviation at grid points for the w component:
   168.40    0.191   0.188   0.188   0.194   0.190   0.205   0.210   0.205   0.199   0.184   0.181   0.190   0.179   0.179   0.184   0.187   0.191   0.194   0.196   0.197   0.190   0.179   0.190   0.193   0.184   0.193   0.192   0.186   0.175   0.175   0.177   0.181   0.180   0.181   0.177
   163.75    0.193   0.193   0.182   0.191   0.191   0.199   0.201   0.186   0.183   0.183   0.177   0.183   0.179   0.174   0.181   0.188   0.198   0.191   0.191   0.187   0.182   0.182   0.185   0.197   0.196   0.192   0.185   0.183   0.178   0.172   0.187   0.186   0.182   0.184   0.180
   159.10    0.188   0.187   0.185   0.191   0.189   0.191   0.191   0.187   0.174   0.175   0.180   0.190   0.179   0.187   0.185   0.196   0.194   0.191   0.190   0.187   0.191   0.182   0.188   0.188   0.193   0.199   0.196   0.188   0.182   0.180   0.187   0.182   0.184   0.178   0.181
   154.45    0.188   0.183   0.180   0.183   0.188   0.184   0.183   0.179   0.175   0.177   0.179   0.189   0.192   0.180   0.189   0.198   0.203   0.195   0.207   0.204   0.205   0.198   0.195   0.185   0.194   0.187   0.195   0.182   0.184   0.185   0.182   0.177   0.182   0.174   0.183
   149.80    0.194   0.186   0.185   0.184   0.180   0.181   0.177   0.181   0.181   0.178   0.186   0.193   0.189   0.190   0.198   0.193   0.199   0.197   0.201   0.220   0.223   0.214   0.211   0.202   0.194   0.192   0.186   0.184   0.181   0.189   0.183   0.175   0.182   0.179   0.181
   145.15    0.190   0.180   0.184   0.183   0.189   0.180   0.168   0.176   0.186   0.184   0.186   0.191   0.192   0.196   0.189   0.203   0.203   0.210   0.215   0.227   0.229   0.230   0.221   0.211   0.200   0.181   0.182   0.179   0.185   0.188   0.187   0.177   0.181   0.179   0.185
   140.50    0.188   0.182   0.188   0.195   0.179   0.173   0.175   0.175   0.188   0.200   0.194   0.184   0.186   0.193   0.200   0.200   0.215   0.218   0.208   0.223   0.227   0.227   0.208   0.211   0.192   0.195   0.177   0.179   0.184   0.178   0.183   0.185   0.184   0.179   0.181
   135.85    0.184   0.186   0.190   0.191   0.177   0.186   0.181   0.185   0.193   0.201   0.193   0.187   0.190   0.192   0.188   0.202   0.210   0.204   0.213   0.218   0.222   0.211   0.217   0.206   0.191   0.190   0.180   0.188   0.173   0.172   0.178   0.170   0.181   0.179   0.181
   131.20    0.184   0.183   0.190   0.195   0.193   0.185   0.182   0.180   0.187   0.187   0.197   0.187   0.195   0.192   0.190   0.202   0.212   0.197   0.207   0.209   0.208   0.208   0.207   0.208   0.203   0.188   0.186   0.177   0.179   0.179   0.177   0.177   0.177   0.182   0.184
   126.55    0.179   0.177   0.181   0.185   0.184   0.181   0.182   0.180   0.179   0.182   0.198   0.191   0.204   0.202   0.203   0.207   0.216   0.203   0.207   0.207   0.205   0.194   0.199   0.189   0.189   0.193   0.188   0.177   0.179   0.175   0.171   0.173   0.172   0.178   0.177
   121.90    0.178   0.175   0.178   0.178   0.182   0.184   0.193   0.185   0.187   0.192   0.196   0.199   0.204   0.204   0.204   0.221   0.228   0.216   0.212   0.201   0.191   0.201   0.194   0.188   0.183   0.183   0.186   0.184   0.176   0.172   0.173   0.168   0.171   0.179   0.180
   117.25    0.183   0.186   0.172   0.179   0.183   0.186   0.183   0.185   0.194   0.189   0.191   0.187   0.195   0.206   0.205   0.215   0.222   0.209   0.206   0.195   0.205   0.202   0.197   0.182   0.177   0.179   0.178   0.177   0.183   0.175   0.167   0.168   0.172   0.168   0.175
   112.60    0.183   0.181   0.180   0.185   0.189   0.176   0.190   0.191   0.201   0.192   0.189   0.200   0.194   0.200   0.211   0.211   0.220   0.204   0.196   0.201   0.200   0.194   0.196   0.181   0.176   0.185   0.178   0.185   0.182   0.183   0.173   0.174   0.177   0.169   0.175
   107.95    0.184   0.186   0.199   0.204   0.199   0.189   0.187   0.198   0.203   0.195   0.198   0.203   0.191   0.199   0.202   0.208   0.213   0.204   0.201   0.206   0.210   0.203   0.190   0.177   0.178   0.188   0.190   0.180   0.178   0.183   0.179   0.177   0.179   0.176   0.174
   103.30    0.187   0.196   0.201   0.208   0.203   0.197   0.193   0.203   0.201   0.184   0.190   0.193   0.194   0.193   0.195   0.198   0.195   0.192   0.193   0.200   0.202   0.189   0.188   0.182   0.185   0.184   0.186   0.183   0.183   0.177   0.183   0.178   0.183   0.180   0.176
    98.65    0.190   0.189   0.201   0.203   0.200   0.204   0.195   0.196   0.186   0.193   0.194   0.186   0.183   0.182   0.189   0.188   0.187   0.193   0.189   0.193   0.191   0.181   0.182   0.178   0.180   0.182   0.179   0.174   0.175   0.180   0.181   0.172   0.179   0.179   0.185
    94.00    0.189   0.183   0.192   0.197   0.200   0.202   0.197   0.197   0.189   0.196   0.184   0.182   0.179   0.184   0.186   0.184   0.186   0.187   0.201   0.198   0.197   0.187   0.180   0.184   0.188   0.189   0.180   0.175   0.183   0.175   0.178   0.174   0.172   0.170   0.175
    89.35    0.189   0.190   0.197   0.196   0.198   0.189   0.186   0.194   0.185   0.189   0.182   0.189   0.197   0.191   0.180   0.179   0.189   0.192   0.193   0.197   0.194   0.190   0.193   0.189   0.181   0.185   0.188   0.183   0.182   0.172   0.178   0.186   0.178   0.170   0.181
    84.70    0.192   0.191   0.198   0.193   0.195   0.200   0.189   0.195   0.190   0.188   0.194   0.195   0.188   0.188   0.179   0.184   0.183   0.180   0.190   0.191   0.195   0.193   0.194   0.198   0.185   0.195   0.184   0.181   0.176   0.171   0.182   0.186   0.180   0.177   0.181
    80.05    0.182   0.189   0.186   0.192   0.198   0.204   0.194   0.188   0.186   0.186   0.196   0.193   0.189   0.185   0.190   0.184   0.192   0.191   0.184   0.194   0.188   0.195   0.198   0.194   0.189   0.192   0.187   0.178   0.178   0.176   0.177   0.184   0.187   0.181   0.187
    75.40    0.190   0.182   0.184   0.190   0.198   0.215   0.214   0.200   0.192   0.197   0.189   0.183   0.188   0.189   0.187   0.188   0.196   0.191   0.186   0.188   0.189   0.196   0.198   0.192   0.185   0.180   0.185   0.191   0.180   0.183   0.180   0.175   0.175   0.185   0.184
    70.75    0.196   0.203   0.194   0.202   0.193   0.209   0.211   0.197   0.198   0.195   0.186   0.193   0.186   0.176   0.186   0.193   0.188   0.190   0.194   0.199   0.189   0.194   0.195   0.192   0.193   0.185   0.184   0.190   0.187   0.182   0.186   0.176   0.176   0.187   0.177
    66.10    0.193   0.198   0.196   0.202   0.201   0.203   0.205   0.199   0.189   0.192   0.177   0.191   0.191   0.187   0.193   0.191   0.191   0.197   0.200   0.206   0.204   0.201   0.197   0.192   0.195   0.186   0.180   0.181   0.191   0.198   0.191   0.185   0.184   0.192   0.191
    61.45    0.206   0.202   0.197   0.213   0.211   0.209   0.206   0.205   0.202   0.195   0.182   0.187   0.188   0.196   0.198   0.195   0.193   0.190   0.197   0.206   0.203   0.188   0.191   0.189   0.184   0.181   0.182   0.184   0.183   0.193   0.201   0.194   0.188   0.192   0.191
    56.80    0.199   0.199   0.200   0.215   0.206   0.197   0.198   0.203   0.193   0.187   0.185   0.180   0.194   0.200   0.191   0.190   0.180   0.174   0.189   0.195   0.192   0.193   0.190   0.186   0.179   0.182   0.174   0.182   0.187   0.196   0.197   0.189   0.189   0.189   0.190
    52.15    0.203   0.208   0.211   0.207   0.203   0.208   0.209   0.201   0.200   0.197   0.192   0.191   0.195   0.205   0.196   0.197   0.187   0.184   0.184   0.191   0.188   0.188   0.181   0.182   0.176   0.184   0.184   0.182   0.187   0.190   0.193   0.183   0.185   0.184   0.190
    47.50    0.209   0.208   0.204   0.197   0.190   0.198   0.189   0.201   0.200   0.209   0.201   0.201   0.202   0.204   0.203   0.195   0.183   0.188   0.190   0.191   0.184   0.179   0.180   0.176   0.187   0.182   0.186   0.185   0.181   0.177   0.182   0.180   0.185   0.198   0.194
    42.85    0.204   0.196   0.189   0.183   0.193   0.188   0.186   0.194   0.198   0.202   0.206   0.200   0.200   0.195   0.190   0.191   0.186   0.183   0.188   0.188   0.182   0.183   0.176   0.184   0.187   0.185   0.182   0.184   0.173   0.177   0.179   0.176   0.187   0.190   0.196
    38.20    0.203   0.206   0.188   0.186   0.184   0.178   0.182   0.197   0.188   0.195   0.196   0.196   0.187   0.188   0.189   0.192   0.196   0.190   0.187   0.180   0.183   0.178   0.189   0.189   0.186   0.193   0.183   0.185   0.175   0.175   0.178   0.181   0.185   0.189   0.199
    33.55    0.194   0.200   0.196   0.190   0.180   0.178   0.194   0.201   0.187   0.184   0.195   0.199   0.190   0.190   0.195   0.192   0.195   0.191   0.183   0.188   0.192   0.187   0.188   0.189   0.184   0.184   0.181   0.178   0.174   0.174   0.179   0.188   0.191   0.194   0.187
    28.90    0.204   0.200   0.204   0.196   0.180   0.178   0.188   0.183   0.186   0.184   0.188   0.205   0.207   0.197   0.194   0.195   0.183   0.184   0.184   0.184   0.190   0.194   0.183   0.194   0.190   0.185   0.189   0.182   0.187   0.174   0.180   0.181   0.189   0.183   0.189
    24.25    0.203   0.204   0.197   0.198   0.191   0.181   0.188   0.182   0.184   0.194   0.192   0.196   0.197   0.191   0.195   0.195   0.179   0.171   0.181   0.182   0.185   0.186   0.184   0.197   0.187   0.191   0.189   0.188   0.182   0.178   0.179   0.186   0.181   0.178   0.183
    19.60    0.199   0.203   0.196   0.188   0.193   0.188   0.189   0.180   0.180   0.186   0.187   0.185   0.183   0.181   0.184   0.180   0.175   0.179   0.174   0.181   0.180   0.186   0.192   0.192   0.188   0.189   0.186   0.186   0.187   0.183   0.189   0.182   0.181   0.182   0.177
    14.95    0.207   0.207   0.197   0.195   0.190   0.184   0.182   0.187   0.178   0.181   0.179   0.182   0.179   0.176   0.180   0.174   0.171   0.178   0.183   0.180   0.185   0.183   0.192   0.184   0.193   0.186   0.187   0.198   0.186   0.181   0.183   0.181   0.178   0.192   0.191
    10.30    0.206   0.204   0.189   0.178   0.181   0.192   0.183   0.188   0.181   0.177   0.180   0.177   0.178   0.179   0.174   0.172   0.179   0.187   0.189   0.180   0.181   0.187   0.182   0.184   0.181   0.184   0.191   0.193   0.186   0.181   0.170   0.177   0.180   0.178   0.193
     5.65    0.194   0.192   0.183   0.177   0.185   0.192   0.190   0.179   0.180   0.188   0.181   0.176   0.175   0.172   0.173   0.176   0.186   0.185   0.182   0.177   0.181   0.185   0.187   0.181   0.180   0.185   0.189   0.188   0.180   0.171   0.167   0.171   0.173   0.177   0.184
     1.00    0.185   0.192   0.182   0.191   0.201   0.186   0.191   0.180   0.175   0.179   0.185   0.180   0.177   0.184   0.176   0.185   0.185   0.182   0.183   0.177   0.181   0.186   0.177   0.184   0.184   0.187   0.176   0.182   0.176   0.174   0.168   0.170   0.173   0.174   0.179

   Mean standard deviation across all grid points:
      u component:    0.360 m/s
      v component:    0.329 m/s
      w component:    0.189 m/s


U-component (X) statistics from the interpolated hub point:

   Mean =   9.9913 m/s
   TI   =   3.7754 %


Processing complete.  6123.5 CPU seconds used.
