
This summary file was generated by TurbSim (from OpenFAST-v3.5.3) on 20-Apr-2025 at 03:35:00.


Runtime Options:

 376932526  Random seed #1
    RANLUX  Type of random number generator
         F  Output binary HH turbulence parameters?
         F  Output formatted turbulence parameters?
         F  Output AeroDyn HH files?
         T  Output AeroDyn FF files?
         F  Output BLADED FF files?
         F  Output tower data?
         F  Output HAWC FF files?
         F  Output formatted FF files?
         T  Output coherent turbulence time step file?
 0 -  NONE  IEC turbulence models scaled to exact specified standard deviation


Turbine/Model Specifications:

        37  Vertical grid-point matrix dimension
        35  Horizontal grid-point matrix dimension
     0.250  Time step [seconds]
   900.000  Analysis time [seconds]
   900.000  Usable output time [seconds]
    89.350  Hub height [m]
   167.400  Grid height [m]
   158.100  Grid width [m]
     0.000  Vertical flow angle [degrees]
     0.000  Horizontal flow angle [degrees]


Meteorological Boundary Conditions:

    TIMESR  User-input time series spectral model
       N/A  IEC standard
       N/A  IEC turbulence characteristic
       N/A  IEC turbulence type
       N/A  IEC Extreme Turbulence Model (ETM) "c" parameter [m/s]
       PL   Wind profile type
    90.000  Reference height [m]
    10.000  Reference wind speed [m/s]
       N/A  Jet height [m]
     0.120  Power law exponent
     0.030  Surface roughness length [m]


Non-IEC Meteorological Boundary Conditions:

    45.000  Site latitude [degrees]
     0.050  Gradient Richardson number
     0.480  Friction or shear velocity [m/s]
       N/A  Mixing layer depth [m]
       N/A  Mean hub u'w' Reynolds stress
       N/A  Mean hub u'v' Reynolds stress
       N/A  Mean hub v'w' Reynolds stress


Spatial Coherence Models:

       IEC  u-component coherence model
       IEC  v-component coherence model
       IEC  w-component coherence model
(   12.000, 0.353E-03)  u-component coherence parameters
(   12.000, 0.353E-03)  v-component coherence parameters
(   12.000, 0.353E-03)  w-component coherence parameters
       N/A  Coherence exponent


Coherent Turbulence Scaling Parameters:

.\EventData
            Name of the path containing the coherent turbulence data files
       les  Type of coherent turbulence data files
     1.000  Disturbance scale (ratio of wave height to rotor diameter)
     0.500  Fractional location of tower centerline from right
     0.500  Fractional location of hub height from the bottom of the dataset
    30.000  Minimum start time for coherent structures [seconds]


Profiles from User-Defined Time-Series Input:

  Height   Wind Speed   Horizontal Angle   Vertical Angle
   (m)        (m/s)          (deg)              (deg)    
  ------   ----------   ----------------   --------------
   94.00      10.00          -0.63                0.00


You have requested that the following file(s) be generated:

   /kfs3/scratch/agupta/Projects/RL_Incubator/FinalRuns_Veer/Seed4/./FFSim_Seed4/Cond00_v10.0_PL0.12_TI6.0/Case0_wdirp00/Seed_6/TurbSim/HighT18.bts (AeroDyn/TurbSim full-field wind file)


Turbulence Simulation Scaling Parameter Summary:

   Turbulence model used                            =  User-input time series
   Gradient Richardson number                       =    0.050
   Monin-Obukhov (M-O) z/L parameter                =    0.067
   Monin-Obukhov (M-O) length scale                 = 1340.250 m
   Mean wind speed at hub height                    =    9.991 m/s

   Wind profile type                                =  Power law
   Power law exponent                               =    0.120
   Mean shear across rotor disk                     =    0.019 (m/s)/m
   Assumed rotor diameter                           =  158.100 m
   Surface roughness length                         =    0.030 m

   Nyquist frequency of turbulent wind field        =    2.000 Hz

   Number of time steps in the FFT                  =     3600
   Number of time steps output                      =     3600
   Number of points simulated                       =     1296


Mean Flow Angles:

   Vertical   =   0.0 degrees
   Horizontal =   0.0 degrees

Mean Wind Speed Profile:

   Height    Wind Speed   Horizontal Angle  Vertical Angle  U-comp (X)   V-comp (Y)   W-comp (Z)
     (m)        (m/s)         (degrees)       (degrees)       (m/s)        (m/s)        (m/s)   
   ------    ----------   ----------------  --------------  ----------   ----------   ----------
    168.4       10.78            0.00            0.00         10.78         0.00         0.00
    163.7       10.74            0.00            0.00         10.74         0.00         0.00
    159.1       10.71            0.00            0.00         10.71         0.00         0.00
    154.4       10.67            0.00            0.00         10.67         0.00         0.00
    149.8       10.63            0.00            0.00         10.63         0.00         0.00
    145.1       10.59            0.00            0.00         10.59         0.00         0.00
    140.5       10.55            0.00            0.00         10.55         0.00         0.00
    135.8       10.51            0.00            0.00         10.51         0.00         0.00
    131.2       10.46            0.00            0.00         10.46         0.00         0.00
    126.5       10.42            0.00            0.00         10.42         0.00         0.00
    121.9       10.37            0.00            0.00         10.37         0.00         0.00
    117.2       10.32            0.00            0.00         10.32         0.00         0.00
    112.6       10.27            0.00            0.00         10.27         0.00         0.00
    107.9       10.22            0.00            0.00         10.22         0.00         0.00
    103.3       10.17            0.00            0.00         10.17         0.00         0.00
     98.6       10.11            0.00            0.00         10.11         0.00         0.00
     94.0       10.05            0.00            0.00         10.05         0.00         0.00
     89.3        9.99            0.00            0.00          9.99         0.00         0.00
     84.7        9.93            0.00            0.00          9.93         0.00         0.00
     80.0        9.86            0.00            0.00          9.86         0.00         0.00
     75.4        9.79            0.00            0.00          9.79         0.00         0.00
     70.7        9.72            0.00            0.00          9.72         0.00         0.00
     66.1        9.64            0.00            0.00          9.64         0.00         0.00
     61.4        9.55            0.00            0.00          9.55         0.00         0.00
     56.8        9.46            0.00            0.00          9.46         0.00         0.00
     52.1        9.37            0.00            0.00          9.37         0.00         0.00
     47.5        9.26            0.00            0.00          9.26         0.00         0.00
     42.8        9.15            0.00            0.00          9.15         0.00         0.00
     38.2        9.02            0.00            0.00          9.02         0.00         0.00
     33.5        8.88            0.00            0.00          8.88         0.00         0.00
     28.9        8.73            0.00            0.00          8.73         0.00         0.00
     24.2        8.54            0.00            0.00          8.54         0.00         0.00
     19.6        8.33            0.00            0.00          8.33         0.00         0.00
     14.9        8.06            0.00            0.00          8.06         0.00         0.00
     10.3        7.71            0.00            0.00          7.71         0.00         0.00
      5.6        7.17            0.00            0.00          7.17         0.00         0.00
      1.0        5.83            0.00            0.00          5.83         0.00         0.00


Harvested Random Seeds after Generation of the Random Numbers:

     65026800 K 1
            0 K 2


Hub-Height Simulated Turbulence Statistical Summary:

   Type of Wind        Min (m/s)   Mean (m/s)    Max (m/s)  Sigma (m/s)       TI (%)
   ----------------    ---------   ----------    ---------  -----------       ------
   Longitudinal (u)         7.84         9.99        11.56        0.637        6.374
   Lateral (v)             -1.47         0.00         1.47        0.451        4.516
   Vertical (w)            -0.88         0.00         0.86        0.270        2.701
   U component              7.84         9.99        11.56        0.637        6.374
   V component             -1.47         0.00         1.47        0.451        4.516
   W component             -0.88         0.00         0.86        0.270        2.701
   Horizontal (U&V)         7.86        10.00        11.61        0.635        6.350
   Total                    7.86        10.01        11.61        0.635        6.346

                       Min Reynolds     Mean Reynolds    Max Reynolds    Correlation
   Product             Stress (m/s)^2   Stress (m/s)^2   Stress (m/s)^2  Coefficient
   ----------------    --------------   --------------   --------------  -----------
   u'w'                     -1.023             0.022             1.357         0.130
   u'v'                     -2.022            -0.040             2.195        -0.138
   v'w'                     -0.664             0.004             0.972         0.037


   Friction Velocity (Ustar)  =      0.149 m/s
   Maximum Instantaneous TKE  =      2.569 (m/s)^2
   Maximum Instantaneous CTKE =      1.142 (m/s)^2


Grid Point Variance Summary:

   Y-coord  -79.05  -74.40  -69.75  -65.10  -60.45  -55.80  -51.15  -46.50  -41.85  -37.20  -32.55  -27.90  -23.25  -18.60  -13.95   -9.30   -4.65    0.00    4.65    9.30   13.95   18.60   23.25   27.90   32.55   37.20   41.85   46.50   51.15   55.80   60.45   65.10   69.75   74.40   79.05

   Height   Standard deviation at grid points for the u component:
   168.40    0.689   0.733   0.696   0.694   0.637   0.622   0.608   0.689   0.698   0.664   0.630   0.608   0.652   0.620   0.661   0.648   0.647   0.693   0.667   0.671   0.687   0.654   0.655   0.651   0.599   0.607   0.642   0.620   0.597   0.615   0.576   0.564   0.542   0.530   0.502
   163.75    0.683   0.713   0.683   0.719   0.729   0.677   0.695   0.661   0.720   0.674   0.655   0.657   0.640   0.623   0.642   0.604   0.621   0.637   0.683   0.679   0.672   0.643   0.649   0.623   0.619   0.612   0.629   0.598   0.605   0.578   0.547   0.539   0.540   0.529   0.575
   159.10    0.753   0.729   0.743   0.720   0.738   0.733   0.684   0.680   0.717   0.678   0.701   0.636   0.687   0.659   0.666   0.610   0.639   0.631   0.690   0.694   0.675   0.664   0.676   0.658   0.651   0.609   0.635   0.649   0.608   0.596   0.549   0.568   0.570   0.605   0.619
   154.45    0.730   0.724   0.703   0.744   0.727   0.747   0.710   0.662   0.642   0.630   0.629   0.644   0.669   0.665   0.652   0.684   0.682   0.664   0.665   0.657   0.694   0.700   0.703   0.645   0.660   0.627   0.595   0.657   0.635   0.622   0.556   0.507   0.582   0.626   0.600
   149.80    0.749   0.761   0.729   0.726   0.728   0.727   0.744   0.623   0.654   0.584   0.630   0.630   0.655   0.635   0.668   0.662   0.714   0.682   0.654   0.651   0.696   0.709   0.701   0.683   0.673   0.650   0.618   0.617   0.641   0.609   0.531   0.548   0.583   0.631   0.600
   145.15    0.801   0.777   0.799   0.801   0.731   0.740   0.669   0.626   0.613   0.616   0.600   0.658   0.630   0.618   0.685   0.705   0.697   0.673   0.666   0.645   0.686   0.701   0.732   0.719   0.767   0.686   0.631   0.658   0.615   0.600   0.542   0.516   0.581   0.632   0.613
   140.50    0.775   0.811   0.810   0.770   0.785   0.689   0.700   0.642   0.617   0.657   0.640   0.657   0.648   0.631   0.695   0.727   0.678   0.687   0.724   0.692   0.711   0.732   0.730   0.745   0.750   0.692   0.691   0.599   0.597   0.602   0.546   0.553   0.578   0.593   0.538
   135.85    0.808   0.799   0.751   0.680   0.755   0.745   0.722   0.695   0.658   0.663   0.706   0.650   0.631   0.626   0.655   0.629   0.660   0.656   0.707   0.745   0.762   0.780   0.763   0.753   0.806   0.717   0.676   0.608   0.611   0.603   0.577   0.571   0.572   0.582   0.514
   131.20    0.815   0.847   0.780   0.745   0.726   0.689   0.704   0.721   0.707   0.712   0.692   0.694   0.628   0.682   0.641   0.623   0.679   0.670   0.719   0.776   0.770   0.780   0.777   0.760   0.767   0.747   0.645   0.612   0.582   0.560   0.576   0.583   0.580   0.598   0.522
   126.55    0.787   0.792   0.776   0.757   0.782   0.742   0.699   0.707   0.693   0.704   0.759   0.709   0.637   0.652   0.635   0.633   0.681   0.668   0.681   0.672   0.721   0.770   0.729   0.755   0.711   0.745   0.658   0.625   0.599   0.564   0.552   0.567   0.608   0.597   0.570
   121.90    0.782   0.748   0.780   0.779   0.769   0.764   0.720   0.746   0.700   0.676   0.704   0.716   0.696   0.647   0.578   0.585   0.615   0.664   0.683   0.689   0.690   0.677   0.737   0.710   0.728   0.689   0.609   0.628   0.592   0.592   0.607   0.627   0.616   0.557   0.556
   117.25    0.769   0.781   0.757   0.764   0.793   0.831   0.746   0.783   0.716   0.701   0.706   0.691   0.667   0.688   0.637   0.573   0.603   0.621   0.662   0.699   0.652   0.646   0.691   0.684   0.688   0.674   0.611   0.592   0.607   0.651   0.632   0.641   0.655   0.598   0.597
   112.60    0.725   0.736   0.778   0.820   0.829   0.769   0.736   0.742   0.700   0.693   0.712   0.636   0.623   0.613   0.626   0.620   0.571   0.618   0.659   0.655   0.648   0.675   0.669   0.683   0.689   0.643   0.621   0.630   0.623   0.693   0.674   0.632   0.578   0.607   0.614
   107.95    0.739   0.710   0.753   0.784   0.757   0.695   0.716   0.722   0.682   0.726   0.690   0.639   0.614   0.582   0.574   0.601   0.589   0.617   0.609   0.653   0.679   0.642   0.634   0.637   0.631   0.629   0.584   0.629   0.668   0.681   0.643   0.639   0.582   0.566   0.550
   103.30    0.722   0.718   0.733   0.739   0.695   0.646   0.644   0.666   0.659   0.680   0.692   0.622   0.632   0.538   0.583   0.627   0.612   0.562   0.615   0.633   0.656   0.653   0.620   0.623   0.658   0.658   0.617   0.630   0.654   0.633   0.607   0.612   0.576   0.528   0.517
    98.65    0.707   0.658   0.640   0.678   0.708   0.681   0.687   0.636   0.636   0.652   0.692   0.636   0.632   0.578   0.564   0.618   0.625   0.620   0.615   0.633   0.620   0.658   0.657   0.627   0.637   0.665   0.646   0.647   0.648   0.633   0.591   0.552   0.544   0.528   0.560
    94.00    0.669   0.648   0.642   0.633   0.691   0.664   0.634   0.650   0.708   0.657   0.664   0.686   0.665   0.644   0.602   0.610   0.663   0.628   0.605   0.622   0.623   0.607   0.639   0.660   0.648   0.650   0.653   0.616   0.660   0.647   0.584   0.522   0.513   0.559   0.521
    89.35    0.606   0.615   0.615   0.632   0.653   0.639   0.643   0.638   0.645   0.695   0.640   0.641   0.645   0.661   0.652   0.647   0.646   0.637   0.615   0.590   0.541   0.564   0.646   0.674   0.656   0.703   0.673   0.644   0.682   0.673   0.593   0.571   0.562   0.559   0.563
    84.70    0.648   0.600   0.580   0.652   0.635   0.628   0.653   0.604   0.678   0.687   0.689   0.650   0.619   0.652   0.672   0.628   0.609   0.622   0.623   0.578   0.565   0.577   0.639   0.677   0.697   0.720   0.726   0.652   0.642   0.712   0.656   0.610   0.552   0.546   0.575
    80.05    0.669   0.689   0.635   0.632   0.641   0.630   0.631   0.649   0.663   0.720   0.723   0.705   0.641   0.685   0.684   0.670   0.627   0.637   0.628   0.611   0.578   0.571   0.589   0.629   0.666   0.688   0.714   0.706   0.714   0.745   0.715   0.658   0.560   0.538   0.552
    75.40    0.754   0.682   0.698   0.684   0.630   0.609   0.650   0.652   0.692   0.717   0.685   0.687   0.685   0.652   0.682   0.646   0.686   0.651   0.628   0.618   0.604   0.620   0.645   0.625   0.628   0.698   0.716   0.712   0.727   0.750   0.719   0.662   0.592   0.604   0.553
    70.75    0.852   0.822   0.715   0.661   0.655   0.643   0.695   0.637   0.615   0.687   0.692   0.645   0.666   0.667   0.643   0.606   0.698   0.648   0.695   0.720   0.665   0.645   0.702   0.672   0.653   0.680   0.646   0.692   0.701   0.692   0.663   0.651   0.665   0.580   0.571
    66.10    0.854   0.828   0.766   0.713   0.709   0.675   0.632   0.644   0.638   0.675   0.678   0.668   0.657   0.684   0.687   0.672   0.702   0.689   0.721   0.739   0.687   0.698   0.696   0.657   0.661   0.656   0.645   0.697   0.659   0.698   0.665   0.655   0.627   0.593   0.572
    61.45    0.917   0.817   0.792   0.829   0.773   0.662   0.625   0.688   0.654   0.637   0.666   0.675   0.704   0.686   0.713   0.677   0.679   0.760   0.743   0.798   0.744   0.702   0.680   0.657   0.613   0.626   0.670   0.692   0.675   0.649   0.661   0.670   0.624   0.645   0.598
    56.80    0.908   0.843   0.822   0.837   0.767   0.668   0.694   0.696   0.716   0.710   0.680   0.670   0.696   0.673   0.736   0.736   0.728   0.793   0.800   0.811   0.784   0.754   0.752   0.686   0.653   0.686   0.685   0.699   0.694   0.667   0.619   0.595   0.614   0.624   0.637
    52.15    0.892   0.836   0.843   0.820   0.797   0.741   0.790   0.750   0.704   0.717   0.742   0.763   0.756   0.731   0.717   0.705   0.717   0.746   0.786   0.805   0.742   0.773   0.749   0.706   0.748   0.677   0.688   0.685   0.688   0.644   0.625   0.564   0.590   0.583   0.615
    47.50    0.904   0.868   0.774   0.819   0.819   0.819   0.849   0.831   0.763   0.780   0.750   0.765   0.788   0.773   0.737   0.705   0.680   0.761   0.803   0.808   0.797   0.792   0.719   0.706   0.708   0.700   0.735   0.698   0.646   0.615   0.652   0.603   0.572   0.593   0.602
    42.85    0.872   0.880   0.838   0.804   0.821   0.834   0.870   0.880   0.776   0.722   0.710   0.714   0.786   0.817   0.761   0.781   0.711   0.782   0.808   0.803   0.811   0.732   0.722   0.748   0.728   0.709   0.707   0.701   0.673   0.629   0.624   0.584   0.583   0.552   0.573
    38.20    0.841   0.857   0.854   0.832   0.838   0.836   0.860   0.846   0.784   0.701   0.697   0.764   0.766   0.825   0.801   0.768   0.736   0.739   0.788   0.773   0.771   0.768   0.687   0.732   0.745   0.725   0.689   0.700   0.656   0.627   0.615   0.557   0.576   0.568   0.593
    33.55    0.814   0.802   0.803   0.824   0.871   0.855   0.850   0.828   0.765   0.741   0.729   0.742   0.749   0.796   0.813   0.766   0.739   0.785   0.795   0.807   0.760   0.716   0.707   0.690   0.705   0.681   0.667   0.700   0.670   0.631   0.605   0.589   0.541   0.548   0.578
    28.90    0.862   0.849   0.791   0.826   0.871   0.903   0.858   0.817   0.769   0.765   0.791   0.787   0.780   0.797   0.779   0.829   0.788   0.782   0.797   0.817   0.757   0.722   0.716   0.711   0.646   0.671   0.676   0.632   0.645   0.620   0.592   0.608   0.591   0.565   0.513
    24.25    0.809   0.835   0.825   0.865   0.844   0.903   0.880   0.882   0.808   0.780   0.774   0.852   0.843   0.878   0.816   0.816   0.823   0.843   0.834   0.803   0.734   0.751   0.688   0.682   0.650   0.664   0.638   0.599   0.599   0.630   0.582   0.589   0.602   0.608   0.560
    19.60    0.835   0.794   0.817   0.851   0.870   0.897   0.886   0.847   0.799   0.814   0.808   0.902   0.837   0.858   0.828   0.823   0.881   0.923   0.850   0.809   0.813   0.731   0.740   0.726   0.680   0.614   0.619   0.618   0.599   0.594   0.602   0.634   0.616   0.665   0.632
    14.95    0.761   0.762   0.814   0.839   0.837   0.834   0.911   0.849   0.801   0.812   0.847   0.910   0.919   0.892   0.846   0.824   0.844   0.867   0.859   0.802   0.838   0.769   0.695   0.700   0.710   0.635   0.641   0.614   0.554   0.580   0.556   0.576   0.583   0.595   0.596
    10.30    0.708   0.670   0.788   0.807   0.813   0.811   0.825   0.837   0.782   0.756   0.820   0.903   0.901   0.906   0.940   0.897   0.883   0.844   0.857   0.806   0.812   0.780   0.738   0.702   0.694   0.637   0.620   0.598   0.590   0.560   0.528   0.540   0.547   0.561   0.576
     5.65    0.723   0.711   0.773   0.798   0.747   0.755   0.795   0.797   0.783   0.778   0.784   0.843   0.869   0.918   0.875   0.908   0.884   0.841   0.816   0.766   0.785   0.776   0.721   0.751   0.686   0.682   0.615   0.632   0.564   0.573   0.559   0.548   0.542   0.605   0.612
     1.00    0.712   0.731   0.736   0.789   0.739   0.764   0.777   0.818   0.811   0.815   0.767   0.765   0.800   0.831   0.866   0.807   0.853   0.816   0.815   0.748   0.756   0.800   0.779   0.771   0.700   0.664   0.635   0.631   0.636   0.599   0.556   0.587   0.544   0.561   0.562

   Height   Standard deviation at grid points for the v component:
   168.40    0.454   0.449   0.441   0.446   0.447   0.454   0.474   0.459   0.428   0.397   0.388   0.391   0.377   0.385   0.373   0.398   0.387   0.385   0.415   0.420   0.413   0.409   0.415   0.407   0.405   0.382   0.355   0.374   0.384   0.383   0.393   0.397   0.400   0.409   0.417
   163.75    0.472   0.465   0.431   0.446   0.442   0.422   0.451   0.448   0.420   0.400   0.393   0.393   0.387   0.402   0.399   0.383   0.394   0.405   0.411   0.422   0.411   0.400   0.402   0.403   0.382   0.391   0.381   0.394   0.395   0.377   0.382   0.408   0.409   0.395   0.409
   159.10    0.451   0.465   0.432   0.412   0.422   0.412   0.422   0.421   0.415   0.407   0.395   0.411   0.408   0.392   0.404   0.403   0.403   0.402   0.404   0.408   0.407   0.400   0.405   0.407   0.409   0.404   0.379   0.389   0.388   0.393   0.399   0.392   0.415   0.393   0.409
   154.45    0.436   0.437   0.412   0.427   0.422   0.416   0.410   0.420   0.414   0.402   0.385   0.375   0.419   0.423   0.388   0.412   0.399   0.384   0.371   0.378   0.397   0.410   0.426   0.409   0.418   0.445   0.417   0.422   0.396   0.407   0.398   0.397   0.411   0.390   0.397
   149.80    0.414   0.410   0.431   0.421   0.414   0.439   0.431   0.432   0.402   0.382   0.378   0.396   0.408   0.405   0.397   0.397   0.399   0.387   0.381   0.386   0.412   0.416   0.409   0.451   0.433   0.443   0.455   0.430   0.424   0.410   0.405   0.405   0.410   0.404   0.408
   145.15    0.417   0.423   0.415   0.408   0.408   0.412   0.417   0.424   0.413   0.399   0.412   0.395   0.396   0.379   0.383   0.400   0.400   0.395   0.387   0.407   0.387   0.412   0.413   0.435   0.415   0.438   0.446   0.416   0.424   0.418   0.396   0.398   0.416   0.390   0.417
   140.50    0.431   0.420   0.443   0.407   0.386   0.395   0.415   0.425   0.456   0.423   0.438   0.413   0.418   0.393   0.402   0.389   0.405   0.392   0.384   0.389   0.401   0.406   0.391   0.412   0.416   0.428   0.421   0.430   0.431   0.435   0.425   0.395   0.418   0.428   0.409
   135.85    0.430   0.436   0.431   0.396   0.386   0.399   0.397   0.444   0.432   0.453   0.434   0.417   0.430   0.404   0.411   0.406   0.425   0.416   0.386   0.392   0.400   0.407   0.405   0.414   0.430   0.436   0.428   0.448   0.432   0.445   0.435   0.402   0.432   0.425   0.440
   131.20    0.421   0.401   0.413   0.396   0.400   0.399   0.410   0.430   0.424   0.431   0.422   0.429   0.434   0.423   0.420   0.407   0.423   0.422   0.410   0.412   0.407   0.419   0.416   0.449   0.453   0.438   0.424   0.445   0.447   0.451   0.435   0.414   0.422   0.412   0.417
   126.55    0.406   0.418   0.419   0.415   0.409   0.420   0.415   0.412   0.411   0.425   0.414   0.422   0.440   0.445   0.427   0.408   0.428   0.419   0.406   0.409   0.416   0.421   0.405   0.447   0.453   0.442   0.424   0.445   0.445   0.440   0.443   0.416   0.418   0.401   0.376
   121.90    0.408   0.397   0.402   0.418   0.429   0.434   0.438   0.430   0.418   0.421   0.415   0.425   0.417   0.451   0.455   0.431   0.426   0.425   0.420   0.406   0.412   0.430   0.436   0.423   0.426   0.451   0.449   0.424   0.411   0.412   0.416   0.406   0.396   0.384   0.387
   117.25    0.409   0.393   0.405   0.399   0.426   0.409   0.431   0.423   0.404   0.400   0.405   0.427   0.424   0.441   0.453   0.432   0.431   0.430   0.413   0.408   0.408   0.434   0.418   0.433   0.427   0.447   0.447   0.420   0.411   0.394   0.396   0.399   0.372   0.385   0.376
   112.60    0.403   0.385   0.387   0.416   0.404   0.413   0.410   0.399   0.381   0.382   0.387   0.404   0.419   0.451   0.446   0.437   0.432   0.434   0.412   0.402   0.400   0.409   0.412   0.404   0.403   0.429   0.443   0.404   0.397   0.386   0.382   0.380   0.382   0.388   0.387
   107.95    0.413   0.411   0.412   0.412   0.399   0.418   0.402   0.402   0.412   0.394   0.406   0.399   0.432   0.420   0.434   0.447   0.429   0.430   0.413   0.402   0.400   0.397   0.385   0.388   0.403   0.401   0.412   0.410   0.401   0.388   0.370   0.371   0.362   0.381   0.378
   103.30    0.406   0.399   0.387   0.399   0.422   0.411   0.398   0.406   0.403   0.411   0.395   0.408   0.414   0.413   0.421   0.433   0.441   0.429   0.398   0.403   0.412   0.396   0.391   0.396   0.387   0.413   0.429   0.404   0.410   0.388   0.390   0.400   0.385   0.385   0.393
    98.65    0.398   0.400   0.388   0.413   0.415   0.427   0.414   0.400   0.396   0.412   0.391   0.407   0.403   0.407   0.411   0.416   0.432   0.426   0.425   0.409   0.407   0.388   0.382   0.390   0.405   0.420   0.413   0.403   0.404   0.413   0.417   0.413   0.403   0.397   0.400
    94.00    0.382   0.396   0.398   0.399   0.406   0.424   0.403   0.378   0.389   0.403   0.405   0.403   0.390   0.413   0.431   0.437   0.445   0.436   0.428   0.404   0.404   0.398   0.377   0.402   0.401   0.406   0.410   0.404   0.410   0.426   0.402   0.431   0.424   0.405   0.399
    89.35    0.423   0.393   0.404   0.392   0.398   0.420   0.395   0.383   0.401   0.412   0.415   0.404   0.405   0.430   0.447   0.448   0.470   0.451   0.433   0.424   0.412   0.402   0.428   0.427   0.402   0.393   0.402   0.409   0.390   0.417   0.438   0.435   0.422   0.385   0.382
    84.70    0.436   0.413   0.407   0.390   0.403   0.416   0.442   0.439   0.438   0.440   0.453   0.429   0.428   0.433   0.448   0.457   0.453   0.445   0.420   0.427   0.422   0.409   0.422   0.421   0.392   0.382   0.384   0.383   0.383   0.402   0.411   0.427   0.413   0.407   0.393
    80.05    0.442   0.417   0.419   0.413   0.403   0.412   0.424   0.446   0.463   0.479   0.475   0.441   0.421   0.413   0.433   0.440   0.467   0.456   0.416   0.414   0.420   0.437   0.437   0.438   0.399   0.375   0.383   0.377   0.373   0.410   0.416   0.417   0.403   0.423   0.400
    75.40    0.414   0.405   0.410   0.407   0.404   0.427   0.419   0.446   0.460   0.455   0.465   0.435   0.435   0.444   0.424   0.450   0.445   0.430   0.406   0.414   0.418   0.420   0.441   0.426   0.397   0.409   0.390   0.406   0.403   0.412   0.397   0.399   0.402   0.409   0.394
    70.75    0.432   0.432   0.425   0.403   0.411   0.436   0.422   0.443   0.434   0.452   0.457   0.438   0.456   0.432   0.430   0.431   0.421   0.446   0.437   0.435   0.410   0.412   0.426   0.422   0.394   0.399   0.419   0.411   0.429   0.429   0.405   0.384   0.369   0.393   0.388
    66.10    0.434   0.436   0.416   0.416   0.412   0.410   0.429   0.426   0.441   0.443   0.433   0.451   0.441   0.441   0.442   0.438   0.418   0.415   0.410   0.409   0.396   0.402   0.392   0.392   0.387   0.413   0.400   0.398   0.404   0.430   0.423   0.400   0.389   0.383   0.387
    61.45    0.439   0.413   0.406   0.409   0.415   0.423   0.426   0.428   0.430   0.448   0.421   0.413   0.425   0.417   0.433   0.447   0.442   0.412   0.388   0.393   0.392   0.400   0.411   0.399   0.408   0.412   0.422   0.416   0.419   0.417   0.416   0.395   0.379   0.384   0.381
    56.80    0.441   0.432   0.430   0.412   0.415   0.425   0.426   0.427   0.415   0.433   0.440   0.425   0.426   0.447   0.442   0.433   0.421   0.433   0.427   0.381   0.392   0.411   0.426   0.430   0.410   0.415   0.418   0.419   0.424   0.427   0.404   0.400   0.398   0.398   0.404
    52.15    0.438   0.431   0.437   0.423   0.415   0.416   0.425   0.418   0.435   0.433   0.439   0.447   0.423   0.426   0.435   0.435   0.431   0.428   0.426   0.425   0.430   0.436   0.428   0.410   0.428   0.408   0.428   0.428   0.444   0.443   0.442   0.403   0.404   0.402   0.412
    47.50    0.441   0.443   0.433   0.415   0.390   0.427   0.436   0.409   0.417   0.436   0.430   0.423   0.417   0.400   0.419   0.442   0.446   0.438   0.449   0.437   0.440   0.433   0.426   0.407   0.405   0.416   0.419   0.434   0.431   0.453   0.436   0.415   0.383   0.396   0.378
    42.85    0.437   0.449   0.438   0.426   0.411   0.412   0.414   0.417   0.404   0.417   0.418   0.410   0.432   0.416   0.404   0.424   0.457   0.448   0.429   0.439   0.445   0.425   0.419   0.404   0.405   0.401   0.417   0.431   0.437   0.451   0.409   0.375   0.381   0.388   0.382
    38.20    0.449   0.453   0.449   0.437   0.416   0.412   0.422   0.417   0.415   0.417   0.428   0.418   0.429   0.438   0.415   0.425   0.432   0.420   0.431   0.456   0.456   0.438   0.426   0.425   0.427   0.419   0.404   0.427   0.424   0.436   0.419   0.397   0.415   0.381   0.380
    33.55    0.448   0.451   0.434   0.458   0.437   0.426   0.428   0.430   0.431   0.425   0.426   0.424   0.409   0.419   0.412   0.398   0.409   0.416   0.440   0.445   0.430   0.442   0.420   0.433   0.422   0.418   0.407   0.437   0.416   0.426   0.428   0.423   0.412   0.395   0.393
    28.90    0.434   0.446   0.449   0.438   0.435   0.444   0.442   0.448   0.431   0.417   0.419   0.396   0.409   0.402   0.393   0.406   0.396   0.407   0.409   0.412   0.398   0.434   0.424   0.427   0.435   0.424   0.407   0.424   0.411   0.427   0.434   0.417   0.410   0.413   0.416
    24.25    0.467   0.447   0.460   0.441   0.440   0.432   0.426   0.426   0.424   0.423   0.406   0.417   0.410   0.411   0.419   0.414   0.389   0.399   0.393   0.399   0.411   0.429   0.426   0.444   0.444   0.429   0.411   0.399   0.417   0.424   0.427   0.428   0.428   0.419   0.423
    19.60    0.456   0.449   0.468   0.452   0.419   0.416   0.409   0.422   0.425   0.426   0.395   0.418   0.421   0.423   0.417   0.419   0.404   0.423   0.418   0.405   0.423   0.432   0.438   0.428   0.427   0.399   0.431   0.405   0.419   0.424   0.407   0.422   0.426   0.423   0.411
    14.95    0.448   0.427   0.435   0.451   0.409   0.398   0.400   0.408   0.423   0.414   0.409   0.391   0.392   0.408   0.421   0.416   0.415   0.414   0.411   0.434   0.413   0.426   0.429   0.420   0.443   0.428   0.422   0.437   0.403   0.411   0.395   0.430   0.412   0.424   0.423
    10.30    0.436   0.426   0.430   0.425   0.389   0.382   0.381   0.390   0.401   0.402   0.415   0.400   0.409   0.406   0.432   0.404   0.410   0.404   0.417   0.410   0.435   0.433   0.413   0.405   0.415   0.412   0.436   0.420   0.399   0.409   0.411   0.420   0.436   0.430   0.423
     5.65    0.442   0.443   0.433   0.423   0.406   0.417   0.414   0.391   0.394   0.393   0.404   0.402   0.423   0.417   0.406   0.405   0.402   0.417   0.417   0.401   0.418   0.430   0.434   0.408   0.413   0.413   0.426   0.408   0.401   0.399   0.389   0.417   0.431   0.427   0.429
     1.00    0.442   0.453   0.432   0.423   0.416   0.407   0.419   0.401   0.412   0.422   0.403   0.395   0.406   0.391   0.384   0.403   0.385   0.412   0.421   0.414   0.424   0.430   0.425   0.411   0.393   0.398   0.398   0.401   0.378   0.384   0.390   0.411   0.413   0.421   0.417

   Height   Standard deviation at grid points for the w component:
   168.40    0.275   0.285   0.282   0.281   0.279   0.283   0.283   0.274   0.275   0.265   0.278   0.273   0.270   0.280   0.275   0.274   0.275   0.280   0.278   0.272   0.275   0.281   0.273   0.268   0.268   0.274   0.270   0.265   0.271   0.269   0.258   0.255   0.257   0.256   0.257
   163.75    0.286   0.281   0.277   0.267   0.275   0.271   0.271   0.272   0.280   0.280   0.279   0.276   0.273   0.275   0.278   0.281   0.287   0.277   0.286   0.288   0.275   0.276   0.283   0.271   0.267   0.267   0.257   0.255   0.258   0.261   0.255   0.255   0.249   0.258   0.261
   159.10    0.280   0.288   0.278   0.276   0.271   0.267   0.273   0.269   0.277   0.285   0.275   0.276   0.273   0.280   0.279   0.277   0.279   0.288   0.282   0.280   0.281   0.279   0.285   0.280   0.276   0.274   0.271   0.272   0.266   0.262   0.266   0.260   0.240   0.247   0.254
   154.45    0.272   0.275   0.280   0.273   0.281   0.265   0.262   0.261   0.271   0.275   0.274   0.283   0.275   0.275   0.271   0.274   0.280   0.290   0.288   0.282   0.287   0.296   0.281   0.278   0.287   0.272   0.264   0.260   0.266   0.263   0.262   0.265   0.255   0.247   0.262
   149.80    0.271   0.277   0.294   0.283   0.285   0.276   0.264   0.271   0.274   0.274   0.270   0.270   0.273   0.279   0.277   0.284   0.282   0.284   0.284   0.273   0.279   0.289   0.283   0.279   0.273   0.265   0.263   0.253   0.264   0.271   0.261   0.260   0.253   0.251   0.263
   145.15    0.275   0.276   0.290   0.289   0.286   0.286   0.267   0.268   0.278   0.272   0.277   0.279   0.281   0.281   0.281   0.289   0.280   0.291   0.281   0.270   0.274   0.287   0.281   0.275   0.266   0.270   0.266   0.257   0.265   0.269   0.266   0.257   0.248   0.253   0.258
   140.50    0.267   0.279   0.271   0.283   0.291   0.275   0.274   0.279   0.277   0.279   0.281   0.288   0.290   0.287   0.284   0.279   0.276   0.292   0.280   0.277   0.271   0.267   0.265   0.269   0.274   0.273   0.271   0.257   0.267   0.260   0.269   0.259   0.249   0.253   0.250
   135.85    0.256   0.265   0.281   0.273   0.274   0.272   0.273   0.270   0.271   0.278   0.282   0.296   0.287   0.283   0.282   0.281   0.276   0.278   0.281   0.280   0.258   0.271   0.257   0.265   0.276   0.268   0.271   0.271   0.272   0.265   0.264   0.263   0.262   0.254   0.252
   131.20    0.255   0.268   0.282   0.276   0.275   0.280   0.271   0.275   0.271   0.282   0.283   0.282   0.287   0.279   0.281   0.277   0.277   0.276   0.279   0.269   0.275   0.268   0.264   0.267   0.274   0.267   0.275   0.273   0.269   0.274   0.272   0.260   0.266   0.256   0.260
   126.55    0.264   0.264   0.270   0.273   0.278   0.283   0.285   0.282   0.281   0.290   0.285   0.285   0.287   0.273   0.271   0.267   0.274   0.282   0.275   0.271   0.270   0.262   0.273   0.265   0.259   0.267   0.286   0.271   0.272   0.268   0.268   0.268   0.263   0.263   0.265
   121.90    0.257   0.267   0.268   0.272   0.279   0.275   0.278   0.277   0.285   0.277   0.280   0.275   0.275   0.272   0.276   0.289   0.284   0.295   0.287   0.274   0.271   0.264   0.267   0.271   0.264   0.266   0.282   0.282   0.272   0.270   0.277   0.272   0.278   0.273   0.272
   117.25    0.265   0.266   0.271   0.282   0.272   0.273   0.272   0.272   0.272   0.280   0.273   0.267   0.276   0.274   0.272   0.274   0.288   0.297   0.291   0.289   0.279   0.267   0.264   0.272   0.267   0.279   0.285   0.272   0.276   0.273   0.275   0.272   0.280   0.276   0.274
   112.60    0.270   0.266   0.283   0.280   0.280   0.280   0.275   0.271   0.277   0.266   0.271   0.272   0.265   0.265   0.270   0.271   0.279   0.279   0.284   0.281   0.270   0.271   0.274   0.276   0.272   0.276   0.279   0.268   0.270   0.278   0.273   0.281   0.289   0.284   0.277
   107.95    0.277   0.278   0.279   0.278   0.278   0.279   0.274   0.278   0.283   0.272   0.267   0.268   0.271   0.276   0.272   0.270   0.272   0.280   0.278   0.273   0.274   0.280   0.281   0.284   0.269   0.266   0.270   0.272   0.276   0.282   0.278   0.291   0.283   0.289   0.281
   103.30    0.274   0.275   0.275   0.263   0.266   0.277   0.270   0.273   0.274   0.269   0.265   0.264   0.268   0.266   0.265   0.266   0.285   0.282   0.266   0.270   0.279   0.270   0.280   0.281   0.266   0.266   0.271   0.279   0.283   0.290   0.280   0.283   0.288   0.291   0.295
    98.65    0.274   0.275   0.276   0.278   0.269   0.274   0.271   0.270   0.277   0.263   0.264   0.268   0.267   0.268   0.259   0.267   0.275   0.278   0.272   0.275   0.282   0.277   0.277   0.273   0.271   0.263   0.272   0.276   0.281   0.281   0.275   0.267   0.276   0.279   0.285
    94.00    0.269   0.264   0.268   0.264   0.270   0.267   0.273   0.275   0.267   0.271   0.268   0.266   0.273   0.273   0.266   0.269   0.267   0.274   0.272   0.275   0.277   0.278   0.275   0.279   0.273   0.265   0.270   0.270   0.276   0.283   0.275   0.276   0.273   0.275   0.278
    89.35    0.270   0.272   0.270   0.269   0.265   0.269   0.270   0.271   0.272   0.280   0.268   0.272   0.268   0.267   0.268   0.269   0.274   0.270   0.273   0.273   0.274   0.278   0.276   0.277   0.268   0.271   0.264   0.267   0.271   0.286   0.280   0.276   0.270   0.266   0.280
    84.70    0.279   0.278   0.274   0.282   0.268   0.265   0.263   0.273   0.272   0.276   0.279   0.266   0.258   0.267   0.275   0.275   0.274   0.277   0.276   0.275   0.268   0.275   0.285   0.268   0.265   0.266   0.266   0.267   0.272   0.284   0.275   0.279   0.271   0.267   0.272
    80.05    0.281   0.281   0.278   0.280   0.272   0.266   0.265   0.264   0.263   0.274   0.278   0.275   0.274   0.275   0.276   0.276   0.286   0.267   0.275   0.275   0.277   0.284   0.286   0.289   0.274   0.281   0.267   0.264   0.265   0.278   0.274   0.267   0.269   0.272   0.269
    75.40    0.280   0.287   0.285   0.281   0.270   0.264   0.275   0.270   0.268   0.270   0.287   0.278   0.279   0.271   0.283   0.279   0.282   0.272   0.271   0.276   0.277   0.285   0.283   0.281   0.292   0.272   0.268   0.263   0.269   0.256   0.271   0.276   0.273   0.260   0.268
    70.75    0.284   0.292   0.284   0.277   0.271   0.271   0.277   0.276   0.272   0.276   0.284   0.284   0.286   0.277   0.274   0.282   0.287   0.273   0.276   0.269   0.275   0.283   0.278   0.277   0.277   0.272   0.261   0.269   0.268   0.255   0.257   0.264   0.270   0.264   0.260
    66.10    0.275   0.288   0.291   0.286   0.278   0.283   0.280   0.277   0.296   0.288   0.292   0.292   0.274   0.284   0.285   0.284   0.279   0.271   0.279   0.268   0.268   0.288   0.290   0.279   0.266   0.273   0.272   0.264   0.266   0.267   0.271   0.270   0.264   0.265   0.265
    61.45    0.277   0.281   0.281   0.285   0.286   0.298   0.288   0.290   0.286   0.286   0.290   0.279   0.287   0.284   0.281   0.279   0.284   0.285   0.270   0.268   0.279   0.275   0.281   0.280   0.265   0.268   0.274   0.264   0.272   0.275   0.267   0.271   0.256   0.256   0.263
    56.80    0.292   0.296   0.287   0.280   0.291   0.293   0.278   0.284   0.285   0.285   0.282   0.278   0.298   0.283   0.277   0.273   0.283   0.290   0.281   0.266   0.281   0.283   0.278   0.281   0.270   0.267   0.273   0.266   0.268   0.279   0.272   0.266   0.266   0.274   0.260
    52.15    0.287   0.282   0.289   0.291   0.293   0.284   0.282   0.282   0.286   0.292   0.270   0.273   0.284   0.279   0.272   0.270   0.280   0.283   0.278   0.274   0.279   0.276   0.278   0.278   0.285   0.285   0.268   0.276   0.268   0.272   0.269   0.268   0.275   0.270   0.263
    47.50    0.289   0.280   0.284   0.290   0.284   0.284   0.293   0.279   0.274   0.287   0.285   0.278   0.277   0.272   0.269   0.265   0.272   0.273   0.277   0.279   0.276   0.274   0.280   0.282   0.280   0.275   0.280   0.270   0.270   0.274   0.276   0.267   0.268   0.267   0.267
    42.85    0.273   0.281   0.281   0.290   0.281   0.283   0.279   0.286   0.285   0.279   0.287   0.283   0.276   0.266   0.261   0.266   0.269   0.274   0.274   0.276   0.276   0.278   0.276   0.275   0.271   0.269   0.269   0.273   0.267   0.268   0.263   0.260   0.265   0.272   0.273
    38.20    0.284   0.277   0.287   0.280   0.279   0.282   0.279   0.276   0.285   0.284   0.285   0.280   0.284   0.281   0.283   0.272   0.271   0.275   0.276   0.277   0.285   0.279   0.282   0.277   0.275   0.271   0.257   0.266   0.266   0.262   0.264   0.262   0.264   0.264   0.266
    33.55    0.277   0.283   0.284   0.286   0.285   0.286   0.281   0.281   0.280   0.285   0.279   0.282   0.283   0.275   0.278   0.285   0.280   0.283   0.272   0.281   0.280   0.290   0.276   0.279   0.281   0.278   0.268   0.270   0.270   0.259   0.255   0.259   0.253   0.258   0.263
    28.90    0.285   0.266   0.287   0.286   0.280   0.291   0.287   0.281   0.285   0.273   0.281   0.276   0.280   0.280   0.277   0.282   0.277   0.279   0.277   0.278   0.277   0.287   0.284   0.284   0.284   0.290   0.280   0.273   0.270   0.257   0.252   0.236   0.250   0.255   0.252
    24.25    0.278   0.273   0.274   0.276   0.278   0.284   0.287   0.289   0.284   0.277   0.278   0.278   0.282   0.281   0.278   0.283   0.275   0.277   0.281   0.273   0.283   0.283   0.276   0.277   0.286   0.274   0.282   0.276   0.268   0.253   0.258   0.255   0.256   0.255   0.263
    19.60    0.267   0.271   0.265   0.270   0.268   0.272   0.283   0.285   0.281   0.271   0.268   0.276   0.278   0.280   0.271   0.278   0.279   0.284   0.284   0.281   0.287   0.286   0.281   0.277   0.280   0.283   0.279   0.278   0.277   0.267   0.264   0.261   0.250   0.260   0.261
    14.95    0.264   0.268   0.268   0.263   0.270   0.270   0.273   0.268   0.266   0.267   0.270   0.268   0.277   0.272   0.275   0.276   0.270   0.273   0.277   0.273   0.277   0.279   0.279   0.283   0.279   0.275   0.281   0.281   0.285   0.278   0.263   0.262   0.257   0.251   0.251
    10.30    0.269   0.269   0.264   0.261   0.279   0.276   0.272   0.271   0.272   0.277   0.282   0.274   0.276   0.274   0.276   0.275   0.266   0.261   0.265   0.269   0.275   0.279   0.282   0.287   0.290   0.274   0.285   0.282   0.278   0.273   0.267   0.260   0.263   0.265   0.255
     5.65    0.274   0.269   0.262   0.260   0.263   0.273   0.264   0.274   0.273   0.265   0.273   0.268   0.267   0.271   0.270   0.270   0.268   0.267   0.265   0.272   0.268   0.275   0.289   0.286   0.289   0.279   0.289   0.287   0.275   0.271   0.272   0.267   0.272   0.260   0.256
     1.00    0.269   0.273   0.268   0.263   0.268   0.273   0.276   0.275   0.274   0.283   0.278   0.275   0.266   0.262   0.271   0.283   0.278   0.274   0.277   0.273   0.281   0.286   0.298   0.293   0.283   0.283   0.287   0.284   0.289   0.272   0.271   0.270   0.265   0.276   0.265

   Mean standard deviation across all grid points:
      u component:    0.689 m/s
      v component:    0.416 m/s
      w component:    0.274 m/s


U-component (X) statistics from the interpolated hub point:

   Mean =   9.9913 m/s
   TI   =   6.3741 %


Processing complete.  6318.5 CPU seconds used.
