
This summary file was generated by TurbSim (from OpenFAST-v3.5.3) on 20-Apr-2025 at 03:28:10.


Runtime Options:

 376932526  Random seed #1
    RANLUX  Type of random number generator
         F  Output binary HH turbulence parameters?
         F  Output formatted turbulence parameters?
         F  Output AeroDyn HH files?
         T  Output AeroDyn FF files?
         F  Output BLADED FF files?
         F  Output tower data?
         F  Output HAWC FF files?
         F  Output formatted FF files?
         T  Output coherent turbulence time step file?
 0 -  NONE  IEC turbulence models scaled to exact specified standard deviation


Turbine/Model Specifications:

        37  Vertical grid-point matrix dimension
        35  Horizontal grid-point matrix dimension
     0.250  Time step [seconds]
   900.000  Analysis time [seconds]
   900.000  Usable output time [seconds]
    89.350  Hub height [m]
   167.400  Grid height [m]
   158.100  Grid width [m]
     0.000  Vertical flow angle [degrees]
     0.000  Horizontal flow angle [degrees]


Meteorological Boundary Conditions:

    TIMESR  User-input time series spectral model
       N/A  IEC standard
       N/A  IEC turbulence characteristic
       N/A  IEC turbulence type
       N/A  IEC Extreme Turbulence Model (ETM) "c" parameter [m/s]
       PL   Wind profile type
    90.000  Reference height [m]
    10.000  Reference wind speed [m/s]
       N/A  Jet height [m]
     0.120  Power law exponent
     0.030  Surface roughness length [m]


Non-IEC Meteorological Boundary Conditions:

    45.000  Site latitude [degrees]
     0.050  Gradient Richardson number
     0.480  Friction or shear velocity [m/s]
       N/A  Mixing layer depth [m]
       N/A  Mean hub u'w' Reynolds stress
       N/A  Mean hub u'v' Reynolds stress
       N/A  Mean hub v'w' Reynolds stress


Spatial Coherence Models:

       IEC  u-component coherence model
       IEC  v-component coherence model
       IEC  w-component coherence model
(   12.000, 0.353E-03)  u-component coherence parameters
(   12.000, 0.353E-03)  v-component coherence parameters
(   12.000, 0.353E-03)  w-component coherence parameters
       N/A  Coherence exponent


Coherent Turbulence Scaling Parameters:

.\EventData
            Name of the path containing the coherent turbulence data files
       les  Type of coherent turbulence data files
     1.000  Disturbance scale (ratio of wave height to rotor diameter)
     0.500  Fractional location of tower centerline from right
     0.500  Fractional location of hub height from the bottom of the dataset
    30.000  Minimum start time for coherent structures [seconds]


Profiles from User-Defined Time-Series Input:

  Height   Wind Speed   Horizontal Angle   Vertical Angle
   (m)        (m/s)          (deg)              (deg)    
  ------   ----------   ----------------   --------------
   94.00      10.00          -0.63                0.00


You have requested that the following file(s) be generated:

   /kfs3/scratch/agupta/Projects/RL_Incubator/FinalRuns_Veer/Seed4/./FFSim_Seed4/Cond00_v10.0_PL0.12_TI6.0/Case0_wdirp00/Seed_6/TurbSim/HighT11.bts (AeroDyn/TurbSim full-field wind file)


Turbulence Simulation Scaling Parameter Summary:

   Turbulence model used                            =  User-input time series
   Gradient Richardson number                       =    0.050
   Monin-Obukhov (M-O) z/L parameter                =    0.067
   Monin-Obukhov (M-O) length scale                 = 1340.250 m
   Mean wind speed at hub height                    =    9.991 m/s

   Wind profile type                                =  Power law
   Power law exponent                               =    0.120
   Mean shear across rotor disk                     =    0.019 (m/s)/m
   Assumed rotor diameter                           =  158.100 m
   Surface roughness length                         =    0.030 m

   Nyquist frequency of turbulent wind field        =    2.000 Hz

   Number of time steps in the FFT                  =     3600
   Number of time steps output                      =     3600
   Number of points simulated                       =     1296


Mean Flow Angles:

   Vertical   =   0.0 degrees
   Horizontal =   0.0 degrees

Mean Wind Speed Profile:

   Height    Wind Speed   Horizontal Angle  Vertical Angle  U-comp (X)   V-comp (Y)   W-comp (Z)
     (m)        (m/s)         (degrees)       (degrees)       (m/s)        (m/s)        (m/s)   
   ------    ----------   ----------------  --------------  ----------   ----------   ----------
    168.4       10.78            0.00            0.00         10.78         0.00         0.00
    163.7       10.74            0.00            0.00         10.74         0.00         0.00
    159.1       10.71            0.00            0.00         10.71         0.00         0.00
    154.4       10.67            0.00            0.00         10.67         0.00         0.00
    149.8       10.63            0.00            0.00         10.63         0.00         0.00
    145.1       10.59            0.00            0.00         10.59         0.00         0.00
    140.5       10.55            0.00            0.00         10.55         0.00         0.00
    135.8       10.51            0.00            0.00         10.51         0.00         0.00
    131.2       10.46            0.00            0.00         10.46         0.00         0.00
    126.5       10.42            0.00            0.00         10.42         0.00         0.00
    121.9       10.37            0.00            0.00         10.37         0.00         0.00
    117.2       10.32            0.00            0.00         10.32         0.00         0.00
    112.6       10.27            0.00            0.00         10.27         0.00         0.00
    107.9       10.22            0.00            0.00         10.22         0.00         0.00
    103.3       10.17            0.00            0.00         10.17         0.00         0.00
     98.6       10.11            0.00            0.00         10.11         0.00         0.00
     94.0       10.05            0.00            0.00         10.05         0.00         0.00
     89.3        9.99            0.00            0.00          9.99         0.00         0.00
     84.7        9.93            0.00            0.00          9.93         0.00         0.00
     80.0        9.86            0.00            0.00          9.86         0.00         0.00
     75.4        9.79            0.00            0.00          9.79         0.00         0.00
     70.7        9.72            0.00            0.00          9.72         0.00         0.00
     66.1        9.64            0.00            0.00          9.64         0.00         0.00
     61.4        9.55            0.00            0.00          9.55         0.00         0.00
     56.8        9.46            0.00            0.00          9.46         0.00         0.00
     52.1        9.37            0.00            0.00          9.37         0.00         0.00
     47.5        9.26            0.00            0.00          9.26         0.00         0.00
     42.8        9.15            0.00            0.00          9.15         0.00         0.00
     38.2        9.02            0.00            0.00          9.02         0.00         0.00
     33.5        8.88            0.00            0.00          8.88         0.00         0.00
     28.9        8.73            0.00            0.00          8.73         0.00         0.00
     24.2        8.54            0.00            0.00          8.54         0.00         0.00
     19.6        8.33            0.00            0.00          8.33         0.00         0.00
     14.9        8.06            0.00            0.00          8.06         0.00         0.00
     10.3        7.71            0.00            0.00          7.71         0.00         0.00
      5.6        7.17            0.00            0.00          7.17         0.00         0.00
      1.0        5.83            0.00            0.00          5.83         0.00         0.00


Harvested Random Seeds after Generation of the Random Numbers:

     65026800 K 1
            0 K 2


Hub-Height Simulated Turbulence Statistical Summary:

   Type of Wind        Min (m/s)   Mean (m/s)    Max (m/s)  Sigma (m/s)       TI (%)
   ----------------    ---------   ----------    ---------  -----------       ------
   Longitudinal (u)         8.23         9.99        11.62        0.558        5.583
   Lateral (v)             -1.46         0.00         1.86        0.527        5.273
   Vertical (w)            -1.24        -0.00         0.96        0.271        2.717
   U component              8.23         9.99        11.62        0.558        5.583
   V component             -1.46         0.00         1.86        0.527        5.273
   W component             -1.24        -0.00         0.96        0.271        2.717
   Horizontal (U&V)         8.26        10.01        11.63        0.557        5.571
   Total                    8.26        10.01        11.63        0.557        5.569

                       Min Reynolds     Mean Reynolds    Max Reynolds    Correlation
   Product             Stress (m/s)^2   Stress (m/s)^2   Stress (m/s)^2  Coefficient
   ----------------    --------------   --------------   --------------  -----------
   u'w'                     -1.008            -0.002             0.922        -0.014
   u'v'                     -1.605            -0.009             1.433        -0.031
   v'w'                     -1.078            -0.007             0.793        -0.051


   Friction Velocity (Ustar)  =      0.046 m/s
   Maximum Instantaneous TKE  =      2.055 (m/s)^2
   Maximum Instantaneous CTKE =      0.916 (m/s)^2


Grid Point Variance Summary:

   Y-coord  -79.05  -74.40  -69.75  -65.10  -60.45  -55.80  -51.15  -46.50  -41.85  -37.20  -32.55  -27.90  -23.25  -18.60  -13.95   -9.30   -4.65    0.00    4.65    9.30   13.95   18.60   23.25   27.90   32.55   37.20   41.85   46.50   51.15   55.80   60.45   65.10   69.75   74.40   79.05

   Height   Standard deviation at grid points for the u component:
   168.40    0.557   0.522   0.538   0.532   0.517   0.529   0.551   0.567   0.544   0.540   0.473   0.467   0.483   0.502   0.505   0.452   0.455   0.463   0.449   0.476   0.533   0.559   0.568   0.592   0.560   0.547   0.574   0.546   0.573   0.562   0.532   0.517   0.509   0.484   0.479
   163.75    0.564   0.531   0.531   0.527   0.526   0.519   0.558   0.528   0.522   0.496   0.500   0.465   0.484   0.508   0.488   0.452   0.453   0.460   0.476   0.494   0.523   0.573   0.592   0.594   0.586   0.579   0.571   0.571   0.561   0.518   0.516   0.521   0.497   0.497   0.517
   159.10    0.563   0.551   0.534   0.526   0.523   0.529   0.544   0.546   0.549   0.505   0.473   0.471   0.484   0.508   0.510   0.487   0.479   0.450   0.488   0.502   0.532   0.559   0.575   0.593   0.599   0.582   0.573   0.549   0.515   0.522   0.514   0.494   0.522   0.552   0.557
   154.45    0.520   0.526   0.509   0.500   0.495   0.507   0.508   0.517   0.539   0.485   0.467   0.460   0.484   0.482   0.499   0.512   0.494   0.522   0.475   0.498   0.529   0.561   0.555   0.541   0.581   0.577   0.565   0.562   0.529   0.525   0.516   0.503   0.535   0.572   0.534
   149.80    0.486   0.512   0.494   0.512   0.524   0.553   0.534   0.508   0.527   0.485   0.498   0.485   0.504   0.485   0.469   0.494   0.523   0.541   0.497   0.510   0.528   0.553   0.568   0.579   0.626   0.578   0.580   0.539   0.549   0.543   0.529   0.556   0.565   0.541   0.540
   145.15    0.479   0.515   0.512   0.538   0.538   0.535   0.533   0.497   0.468   0.495   0.499   0.490   0.492   0.488   0.481   0.533   0.521   0.523   0.528   0.527   0.537   0.550   0.575   0.599   0.631   0.627   0.584   0.594   0.546   0.551   0.541   0.525   0.541   0.528   0.538
   140.50    0.494   0.512   0.529   0.550   0.536   0.526   0.520   0.477   0.482   0.505   0.524   0.513   0.492   0.510   0.545   0.557   0.548   0.571   0.594   0.573   0.547   0.554   0.545   0.581   0.606   0.620   0.597   0.577   0.563   0.558   0.538   0.520   0.506   0.520   0.513
   135.85    0.473   0.504   0.515   0.523   0.508   0.542   0.548   0.514   0.500   0.497   0.534   0.497   0.475   0.532   0.549   0.540   0.552   0.548   0.582   0.592   0.553   0.559   0.557   0.569   0.606   0.583   0.600   0.583   0.567   0.556   0.536   0.519   0.512   0.486   0.467
   131.20    0.497   0.525   0.488   0.511   0.512   0.514   0.535   0.541   0.523   0.496   0.509   0.505   0.476   0.499   0.545   0.532   0.506   0.520   0.536   0.540   0.516   0.534   0.562   0.553   0.602   0.605   0.603   0.572   0.533   0.533   0.526   0.506   0.491   0.504   0.442
   126.55    0.515   0.505   0.485   0.515   0.523   0.498   0.512   0.559   0.541   0.499   0.524   0.512   0.498   0.500   0.533   0.550   0.503   0.524   0.512   0.496   0.505   0.545   0.555   0.589   0.599   0.602   0.588   0.537   0.522   0.504   0.528   0.511   0.476   0.481   0.476
   121.90    0.537   0.530   0.525   0.528   0.536   0.543   0.530   0.561   0.583   0.527   0.526   0.527   0.517   0.547   0.513   0.513   0.509   0.481   0.503   0.525   0.512   0.509   0.552   0.554   0.604   0.604   0.574   0.583   0.544   0.525   0.541   0.512   0.460   0.487   0.485
   117.25    0.525   0.503   0.544   0.538   0.553   0.528   0.502   0.541   0.551   0.547   0.531   0.527   0.522   0.550   0.525   0.484   0.516   0.518   0.525   0.499   0.518   0.529   0.534   0.568   0.582   0.597   0.579   0.575   0.547   0.552   0.516   0.520   0.515   0.517   0.485
   112.60    0.527   0.496   0.512   0.532   0.547   0.519   0.513   0.525   0.528   0.498   0.506   0.509   0.501   0.534   0.537   0.507   0.510   0.522   0.533   0.534   0.520   0.521   0.556   0.564   0.587   0.606   0.553   0.562   0.548   0.566   0.522   0.489   0.477   0.472   0.467
   107.95    0.536   0.494   0.546   0.546   0.512   0.494   0.534   0.557   0.515   0.492   0.497   0.523   0.513   0.515   0.489   0.499   0.539   0.537   0.521   0.540   0.548   0.518   0.521   0.576   0.565   0.577   0.579   0.564   0.560   0.535   0.495   0.473   0.452   0.472   0.451
   103.30    0.519   0.507   0.515   0.522   0.526   0.548   0.525   0.546   0.507   0.500   0.519   0.516   0.553   0.502   0.491   0.519   0.548   0.561   0.567   0.556   0.522   0.528   0.523   0.557   0.579   0.583   0.561   0.548   0.555   0.533   0.521   0.497   0.493   0.498   0.477
    98.65    0.541   0.522   0.517   0.531   0.558   0.532   0.526   0.509   0.506   0.499   0.497   0.501   0.540   0.536   0.546   0.537   0.536   0.544   0.558   0.584   0.543   0.529   0.528   0.499   0.555   0.610   0.573   0.585   0.547   0.571   0.539   0.529   0.525   0.500   0.505
    94.00    0.544   0.541   0.523   0.545   0.575   0.550   0.530   0.483   0.466   0.480   0.465   0.504   0.508   0.552   0.529   0.526   0.535   0.550   0.593   0.570   0.544   0.572   0.589   0.525   0.574   0.612   0.609   0.595   0.548   0.553   0.525   0.528   0.512   0.519   0.534
    89.35    0.489   0.519   0.541   0.554   0.557   0.528   0.510   0.476   0.460   0.443   0.441   0.443   0.498   0.507   0.545   0.537   0.534   0.558   0.591   0.561   0.578   0.594   0.583   0.561   0.579   0.608   0.593   0.576   0.548   0.574   0.570   0.563   0.536   0.556   0.527
    84.70    0.484   0.491   0.488   0.528   0.536   0.544   0.512   0.498   0.469   0.443   0.459   0.488   0.499   0.517   0.551   0.557   0.515   0.569   0.563   0.591   0.577   0.597   0.566   0.582   0.595   0.577   0.585   0.592   0.563   0.565   0.540   0.559   0.519   0.541   0.533
    80.05    0.474   0.492   0.492   0.510   0.537   0.559   0.506   0.482   0.453   0.493   0.487   0.501   0.516   0.553   0.585   0.546   0.557   0.555   0.554   0.579   0.579   0.576   0.555   0.566   0.559   0.590   0.575   0.582   0.594   0.550   0.559   0.545   0.505   0.503   0.476
    75.40    0.481   0.510   0.523   0.481   0.517   0.542   0.497   0.463   0.459   0.479   0.491   0.491   0.507   0.536   0.551   0.556   0.573   0.572   0.578   0.571   0.534   0.568   0.577   0.552   0.539   0.591   0.599   0.580   0.611   0.562   0.581   0.532   0.499   0.482   0.460
    70.75    0.551   0.540   0.528   0.484   0.486   0.501   0.505   0.476   0.459   0.474   0.488   0.494   0.543   0.581   0.577   0.586   0.576   0.567   0.541   0.557   0.549   0.599   0.564   0.518   0.536   0.575   0.618   0.597   0.584   0.559   0.561   0.511   0.531   0.492   0.454
    66.10    0.540   0.505   0.511   0.509   0.511   0.493   0.500   0.489   0.500   0.503   0.522   0.522   0.574   0.607   0.593   0.583   0.605   0.592   0.594   0.547   0.598   0.592   0.572   0.535   0.514   0.550   0.605   0.596   0.558   0.591   0.557   0.524   0.491   0.492   0.487
    61.45    0.534   0.518   0.516   0.543   0.514   0.465   0.476   0.496   0.530   0.543   0.583   0.594   0.602   0.598   0.623   0.582   0.599   0.603   0.590   0.594   0.586   0.593   0.592   0.588   0.560   0.565   0.602   0.612   0.595   0.551   0.550   0.529   0.514   0.518   0.513
    56.80    0.526   0.533   0.514   0.515   0.497   0.468   0.474   0.502   0.539   0.603   0.601   0.586   0.608   0.591   0.616   0.610   0.592   0.587   0.594   0.599   0.559   0.593   0.617   0.655   0.616   0.589   0.621   0.609   0.603   0.593   0.581   0.530   0.515   0.506   0.528
    52.15    0.521   0.516   0.516   0.514   0.501   0.504   0.492   0.525   0.543   0.612   0.601   0.561   0.561   0.584   0.644   0.582   0.563   0.554   0.605   0.586   0.583   0.584   0.618   0.647   0.618   0.616   0.624   0.603   0.567   0.568   0.563   0.545   0.517   0.508   0.516
    47.50    0.521   0.531   0.525   0.528   0.513   0.516   0.516   0.531   0.568   0.596   0.576   0.541   0.526   0.569   0.611   0.557   0.550   0.585   0.603   0.570   0.585   0.612   0.622   0.616   0.624   0.608   0.616   0.607   0.558   0.536   0.569   0.560   0.510   0.498   0.482
    42.85    0.524   0.535   0.531   0.502   0.523   0.512   0.506   0.529   0.548   0.545   0.546   0.543   0.540   0.555   0.567   0.560   0.539   0.597   0.620   0.602   0.585   0.578   0.589   0.640   0.668   0.647   0.618   0.617   0.606   0.574   0.587   0.549   0.511   0.492   0.498
    38.20    0.507   0.519   0.534   0.501   0.499   0.491   0.516   0.528   0.522   0.512   0.541   0.514   0.562   0.532   0.513   0.527   0.546   0.588   0.606   0.589   0.583   0.604   0.623   0.637   0.667   0.640   0.623   0.619   0.633   0.607   0.603   0.560   0.500   0.504   0.500
    33.55    0.492   0.514   0.518   0.531   0.505   0.522   0.501   0.498   0.478   0.512   0.497   0.498   0.511   0.512   0.489   0.502   0.516   0.550   0.557   0.556   0.540   0.569   0.565   0.590   0.637   0.629   0.600   0.613   0.659   0.649   0.598   0.572   0.511   0.485   0.481
    28.90    0.474   0.514   0.479   0.501   0.498   0.502   0.498   0.491   0.467   0.488   0.504   0.508   0.532   0.490   0.521   0.489   0.513   0.516   0.530   0.539   0.534   0.545   0.539   0.547   0.557   0.610   0.628   0.626   0.643   0.653   0.645   0.545   0.519   0.508   0.502
    24.25    0.488   0.504   0.490   0.509   0.521   0.513   0.527   0.517   0.494   0.487   0.461   0.490   0.507   0.527   0.518   0.477   0.507   0.533   0.510   0.525   0.488   0.543   0.542   0.550   0.546   0.605   0.607   0.604   0.606   0.650   0.606   0.536   0.514   0.516   0.513
    19.60    0.483   0.507   0.486   0.475   0.500   0.499   0.518   0.526   0.492   0.518   0.502   0.521   0.495   0.541   0.505   0.478   0.517   0.544   0.499   0.489   0.494   0.499   0.526   0.510   0.529   0.577   0.589   0.606   0.646   0.644   0.613   0.558   0.563   0.533   0.534
    14.95    0.518   0.488   0.478   0.442   0.498   0.502   0.526   0.530   0.527   0.507   0.500   0.477   0.526   0.497   0.492   0.509   0.535   0.523   0.515   0.516   0.508   0.526   0.505   0.543   0.540   0.576   0.609   0.596   0.599   0.623   0.582   0.546   0.568   0.546   0.517
    10.30    0.526   0.509   0.493   0.495   0.492   0.478   0.495   0.506   0.508   0.492   0.484   0.498   0.518   0.532   0.536   0.539   0.541   0.512   0.535   0.517   0.495   0.506   0.522   0.524   0.543   0.581   0.574   0.554   0.599   0.607   0.571   0.575   0.542   0.553   0.543
     5.65    0.530   0.504   0.483   0.455   0.469   0.455   0.480   0.526   0.495   0.495   0.493   0.503   0.522   0.529   0.478   0.513   0.503   0.505   0.494   0.489   0.519   0.530   0.503   0.514   0.543   0.570   0.576   0.560   0.549   0.583   0.599   0.571   0.555   0.579   0.539
     1.00    0.515   0.537   0.516   0.502   0.472   0.475   0.528   0.540   0.517   0.503   0.471   0.480   0.507   0.482   0.477   0.495   0.487   0.468   0.482   0.495   0.513   0.544   0.531   0.536   0.522   0.537   0.564   0.533   0.555   0.553   0.563   0.567   0.561   0.572   0.559

   Height   Standard deviation at grid points for the v component:
   168.40    0.451   0.460   0.465   0.453   0.452   0.456   0.483   0.497   0.444   0.416   0.408   0.420   0.398   0.384   0.418   0.449   0.440   0.440   0.472   0.465   0.451   0.447   0.476   0.473   0.482   0.457   0.424   0.446   0.459   0.466   0.481   0.510   0.513   0.497   0.485
   163.75    0.451   0.463   0.452   0.467   0.443   0.432   0.454   0.464   0.448   0.412   0.417   0.430   0.405   0.414   0.435   0.440   0.444   0.440   0.470   0.469   0.456   0.438   0.455   0.461   0.444   0.454   0.438   0.444   0.445   0.465   0.490   0.529   0.499   0.485   0.480
   159.10    0.447   0.465   0.453   0.422   0.417   0.414   0.431   0.447   0.451   0.432   0.425   0.422   0.402   0.415   0.422   0.434   0.443   0.433   0.458   0.461   0.466   0.459   0.460   0.485   0.477   0.450   0.451   0.435   0.452   0.475   0.483   0.485   0.504   0.503   0.505
   154.45    0.447   0.449   0.423   0.440   0.417   0.397   0.403   0.431   0.414   0.433   0.426   0.385   0.413   0.444   0.449   0.462   0.460   0.435   0.427   0.445   0.447   0.464   0.472   0.490   0.487   0.494   0.466   0.479   0.457   0.492   0.472   0.456   0.476   0.480   0.527
   149.80    0.431   0.435   0.433   0.415   0.395   0.417   0.401   0.426   0.407   0.397   0.404   0.386   0.406   0.431   0.454   0.475   0.466   0.440   0.436   0.457   0.447   0.458   0.464   0.484   0.490   0.483   0.488   0.473   0.488   0.499   0.489   0.475   0.458   0.486   0.498
   145.15    0.439   0.450   0.426   0.418   0.395   0.401   0.409   0.408   0.414   0.409   0.421   0.417   0.417   0.419   0.450   0.478   0.459   0.481   0.448   0.450   0.452   0.472   0.476   0.495   0.474   0.493   0.485   0.458   0.499   0.515   0.486   0.484   0.468   0.451   0.477
   140.50    0.442   0.435   0.446   0.406   0.382   0.403   0.412   0.426   0.449   0.417   0.421   0.410   0.414   0.435   0.475   0.490   0.501   0.477   0.451   0.452   0.496   0.506   0.485   0.518   0.502   0.511   0.501   0.496   0.492   0.514   0.504   0.458   0.470   0.488   0.454
   135.85    0.440   0.462   0.446   0.442   0.407   0.401   0.415   0.455   0.429   0.448   0.427   0.420   0.435   0.458   0.492   0.504   0.528   0.516   0.473   0.514   0.499   0.518   0.519   0.521   0.526   0.532   0.486   0.477   0.495   0.503   0.482   0.477   0.489   0.476   0.490
   131.20    0.452   0.429   0.448   0.447   0.456   0.448   0.436   0.439   0.446   0.443   0.425   0.440   0.454   0.476   0.491   0.514   0.522   0.518   0.512   0.526   0.521   0.518   0.511   0.525   0.517   0.499   0.478   0.466   0.505   0.489   0.493   0.485   0.469   0.466   0.473
   126.55    0.439   0.451   0.452   0.456   0.448   0.455   0.443   0.426   0.412   0.442   0.447   0.435   0.444   0.487   0.486   0.513   0.511   0.516   0.513   0.522   0.529   0.533   0.514   0.529   0.515   0.487   0.499   0.501   0.499   0.475   0.498   0.496   0.479   0.460   0.436
   121.90    0.465   0.454   0.444   0.452   0.473   0.471   0.479   0.429   0.399   0.430   0.420   0.424   0.462   0.484   0.486   0.493   0.513   0.532   0.542   0.527   0.509   0.536   0.559   0.535   0.498   0.521   0.502   0.509   0.488   0.465   0.494   0.476   0.457   0.432   0.428
   117.25    0.497   0.478   0.452   0.432   0.458   0.476   0.469   0.451   0.425   0.410   0.417   0.450   0.458   0.490   0.511   0.522   0.539   0.554   0.538   0.542   0.527   0.544   0.544   0.538   0.526   0.536   0.527   0.522   0.493   0.474   0.476   0.473   0.436   0.411   0.447
   112.60    0.499   0.458   0.465   0.447   0.461   0.494   0.480   0.472   0.460   0.432   0.458   0.465   0.465   0.508   0.494   0.506   0.483   0.526   0.554   0.546   0.527   0.518   0.504   0.505   0.497   0.520   0.516   0.482   0.464   0.460   0.450   0.451   0.436   0.456   0.436
   107.95    0.511   0.501   0.487   0.465   0.463   0.489   0.496   0.507   0.511   0.476   0.450   0.497   0.513   0.508   0.521   0.517   0.497   0.505   0.531   0.504   0.501   0.475   0.490   0.497   0.496   0.495   0.489   0.485   0.474   0.479   0.447   0.433   0.435   0.447   0.422
   103.30    0.495   0.487   0.477   0.481   0.481   0.478   0.471   0.495   0.492   0.498   0.471   0.494   0.499   0.503   0.535   0.519   0.515   0.499   0.518   0.520   0.500   0.477   0.493   0.492   0.480   0.483   0.512   0.500   0.503   0.467   0.471   0.465   0.432   0.434   0.425
    98.65    0.474   0.464   0.465   0.480   0.478   0.476   0.461   0.473   0.476   0.479   0.473   0.498   0.491   0.508   0.507   0.520   0.526   0.512   0.494   0.520   0.490   0.483   0.483   0.457   0.459   0.483   0.503   0.498   0.498   0.488   0.477   0.479   0.456   0.449   0.435
    94.00    0.449   0.452   0.451   0.459   0.467   0.494   0.476   0.476   0.506   0.483   0.465   0.477   0.472   0.506   0.522   0.524   0.510   0.485   0.506   0.525   0.508   0.484   0.453   0.462   0.451   0.476   0.477   0.483   0.473   0.491   0.466   0.483   0.475   0.468   0.470
    89.35    0.469   0.450   0.452   0.446   0.473   0.499   0.475   0.480   0.490   0.494   0.460   0.476   0.516   0.529   0.543   0.523   0.511   0.527   0.538   0.547   0.491   0.486   0.490   0.479   0.469   0.442   0.456   0.463   0.433   0.472   0.484   0.492   0.491   0.471   0.468
    84.70    0.507   0.484   0.479   0.459   0.478   0.498   0.519   0.511   0.540   0.519   0.526   0.518   0.531   0.538   0.525   0.519   0.530   0.529   0.510   0.501   0.496   0.474   0.488   0.468   0.456   0.474   0.461   0.478   0.466   0.451   0.474   0.481   0.490   0.472   0.472
    80.05    0.515   0.496   0.493   0.490   0.480   0.487   0.501   0.523   0.543   0.553   0.537   0.506   0.491   0.498   0.513   0.520   0.502   0.502   0.489   0.499   0.486   0.484   0.485   0.471   0.474   0.487   0.485   0.472   0.448   0.473   0.473   0.482   0.461   0.485   0.485
    75.40    0.497   0.495   0.493   0.478   0.485   0.474   0.483   0.521   0.546   0.553   0.537   0.513   0.499   0.507   0.523   0.516   0.480   0.463   0.457   0.471   0.493   0.490   0.465   0.445   0.443   0.472   0.490   0.474   0.468   0.467   0.464   0.455   0.468   0.479   0.451
    70.75    0.541   0.518   0.506   0.480   0.482   0.487   0.485   0.489   0.495   0.520   0.523   0.522   0.512   0.513   0.518   0.502   0.457   0.441   0.432   0.448   0.468   0.484   0.459   0.460   0.441   0.459   0.468   0.471   0.484   0.489   0.489   0.472   0.434   0.446   0.470
    66.10    0.520   0.525   0.495   0.478   0.466   0.465   0.495   0.485   0.485   0.490   0.495   0.534   0.512   0.531   0.509   0.512   0.461   0.446   0.406   0.436   0.450   0.470   0.454   0.464   0.460   0.455   0.462   0.429   0.467   0.492   0.500   0.463   0.451   0.451   0.476
    61.45    0.515   0.495   0.479   0.466   0.458   0.468   0.500   0.488   0.488   0.492   0.495   0.521   0.520   0.490   0.514   0.502   0.487   0.451   0.433   0.426   0.438   0.488   0.490   0.450   0.492   0.453   0.455   0.449   0.455   0.492   0.489   0.468   0.439   0.445   0.453
    56.80    0.523   0.487   0.501   0.473   0.476   0.486   0.488   0.486   0.466   0.485   0.493   0.514   0.496   0.502   0.506   0.481   0.479   0.481   0.450   0.434   0.463   0.471   0.491   0.489   0.456   0.458   0.454   0.458   0.474   0.496   0.471   0.469   0.436   0.432   0.445
    52.15    0.535   0.493   0.479   0.487   0.491   0.506   0.460   0.483   0.488   0.468   0.500   0.507   0.510   0.503   0.513   0.501   0.470   0.474   0.463   0.459   0.472   0.494   0.504   0.475   0.477   0.462   0.473   0.485   0.495   0.502   0.482   0.452   0.450   0.419   0.425
    47.50    0.510   0.477   0.477   0.470   0.457   0.492   0.476   0.463   0.449   0.472   0.473   0.467   0.492   0.479   0.489   0.506   0.480   0.484   0.487   0.484   0.459   0.483   0.496   0.493   0.479   0.492   0.479   0.497   0.486   0.491   0.473   0.444   0.430   0.409   0.378
    42.85    0.475   0.491   0.476   0.467   0.464   0.456   0.441   0.453   0.442   0.472   0.487   0.465   0.468   0.476   0.457   0.507   0.523   0.491   0.467   0.473   0.472   0.459   0.482   0.493   0.477   0.495   0.499   0.501   0.475   0.477   0.449   0.406   0.429   0.410   0.383
    38.20    0.506   0.483   0.471   0.461   0.452   0.445   0.444   0.451   0.460   0.479   0.477   0.474   0.477   0.475   0.454   0.468   0.494   0.477   0.474   0.479   0.490   0.476   0.483   0.492   0.496   0.502   0.491   0.480   0.469   0.469   0.456   0.423   0.430   0.416   0.392
    33.55    0.493   0.499   0.486   0.505   0.479   0.456   0.460   0.456   0.467   0.470   0.480   0.482   0.438   0.466   0.456   0.458   0.490   0.503   0.494   0.497   0.484   0.500   0.477   0.480   0.495   0.503   0.484   0.495   0.471   0.477   0.446   0.447   0.427   0.410   0.392
    28.90    0.493   0.500   0.494   0.494   0.482   0.483   0.485   0.479   0.473   0.468   0.477   0.471   0.462   0.472   0.455   0.440   0.455   0.481   0.461   0.479   0.473   0.503   0.481   0.466   0.499   0.499   0.476   0.497   0.474   0.478   0.472   0.436   0.421   0.404   0.399
    24.25    0.532   0.519   0.513   0.485   0.468   0.489   0.472   0.467   0.477   0.496   0.492   0.497   0.496   0.486   0.489   0.468   0.442   0.454   0.465   0.472   0.499   0.500   0.492   0.491   0.484   0.486   0.468   0.467   0.478   0.479   0.464   0.446   0.439   0.426   0.417
    19.60    0.518   0.523   0.533   0.505   0.461   0.472   0.485   0.491   0.505   0.502   0.485   0.516   0.507   0.480   0.482   0.491   0.462   0.485   0.489   0.484   0.494   0.514   0.515   0.500   0.485   0.446   0.483   0.479   0.474   0.486   0.437   0.438   0.424   0.404   0.408
    14.95    0.532   0.514   0.501   0.521   0.450   0.462   0.472   0.473   0.517   0.500   0.480   0.493   0.477   0.479   0.496   0.485   0.482   0.480   0.490   0.509   0.489   0.509   0.509   0.496   0.518   0.490   0.485   0.507   0.470   0.462   0.424   0.419   0.415   0.428   0.418
    10.30    0.517   0.509   0.516   0.491   0.458   0.465   0.440   0.455   0.472   0.465   0.496   0.497   0.501   0.478   0.507   0.491   0.496   0.475   0.470   0.481   0.497   0.508   0.500   0.493   0.498   0.509   0.504   0.465   0.464   0.456   0.436   0.438   0.444   0.441   0.425
     5.65    0.520   0.525   0.501   0.488   0.471   0.499   0.477   0.477   0.470   0.474   0.462   0.485   0.510   0.519   0.486   0.496   0.499   0.485   0.497   0.472   0.504   0.508   0.528   0.483   0.498   0.484   0.498   0.455   0.453   0.452   0.450   0.426   0.437   0.430   0.448
     1.00    0.531   0.546   0.515   0.485   0.497   0.492   0.511   0.495   0.460   0.492   0.458   0.451   0.478   0.485   0.459   0.495   0.495   0.508   0.480   0.472   0.499   0.497   0.485   0.485   0.468   0.451   0.441   0.448   0.432   0.432   0.419   0.416   0.418   0.428   0.428

   Height   Standard deviation at grid points for the w component:
   168.40    0.286   0.283   0.275   0.284   0.294   0.285   0.283   0.280   0.285   0.275   0.278   0.277   0.271   0.274   0.278   0.282   0.296   0.299   0.291   0.292   0.282   0.293   0.278   0.278   0.282   0.283   0.277   0.277   0.293   0.289   0.272   0.267   0.276   0.275   0.276
   163.75    0.289   0.281   0.275   0.274   0.283   0.281   0.288   0.293   0.290   0.289   0.284   0.276   0.277   0.270   0.266   0.277   0.292   0.290   0.297   0.300   0.288   0.289   0.296   0.284   0.290   0.282   0.286   0.273   0.275   0.287   0.286   0.280   0.275   0.287   0.283
   159.10    0.279   0.282   0.278   0.278   0.277   0.276   0.285   0.285   0.290   0.295   0.295   0.284   0.271   0.275   0.273   0.278   0.289   0.299   0.301   0.292   0.300   0.297   0.296   0.289   0.284   0.281   0.290   0.286   0.289   0.292   0.294   0.293   0.279   0.273   0.272
   154.45    0.268   0.268   0.277   0.279   0.286   0.280   0.282   0.285   0.284   0.290   0.289   0.285   0.276   0.275   0.273   0.285   0.300   0.304   0.291   0.291   0.303   0.302   0.287   0.282   0.285   0.272   0.269   0.273   0.284   0.284   0.286   0.288   0.278   0.266   0.278
   149.80    0.273   0.274   0.282   0.279   0.278   0.286   0.283   0.285   0.293   0.288   0.293   0.273   0.282   0.290   0.291   0.298   0.300   0.299   0.285   0.269   0.294   0.294   0.291   0.281   0.274   0.270   0.260   0.266   0.270   0.281   0.285   0.272   0.256   0.269   0.273
   145.15    0.277   0.274   0.275   0.277   0.277   0.296   0.293   0.290   0.288   0.288   0.283   0.282   0.286   0.284   0.293   0.288   0.290   0.296   0.280   0.273   0.282   0.294   0.289   0.285   0.279   0.280   0.285   0.274   0.278   0.289   0.284   0.263   0.259   0.268   0.267
   140.50    0.266   0.282   0.269   0.274   0.286   0.282   0.294   0.292   0.292   0.281   0.283   0.283   0.293   0.295   0.292   0.283   0.283   0.294   0.287   0.283   0.282   0.288   0.279   0.284   0.276   0.286   0.280   0.270   0.276   0.279   0.286   0.278   0.260   0.265   0.263
   135.85    0.265   0.279   0.289   0.286   0.281   0.289   0.288   0.283   0.288   0.281   0.281   0.287   0.286   0.288   0.293   0.276   0.278   0.291   0.287   0.289   0.271   0.287   0.280   0.281   0.285   0.281   0.275   0.287   0.290   0.283   0.282   0.279   0.269   0.266   0.258
   131.20    0.260   0.279   0.287   0.282   0.289   0.305   0.293   0.288   0.277   0.278   0.276   0.284   0.283   0.286   0.287   0.276   0.279   0.280   0.289   0.289   0.281   0.280   0.284   0.282   0.287   0.281   0.291   0.286   0.281   0.286   0.290   0.279   0.276   0.273   0.263
   126.55    0.271   0.276   0.283   0.286   0.288   0.301   0.298   0.288   0.282   0.284   0.279   0.293   0.292   0.281   0.291   0.285   0.280   0.287   0.286   0.286   0.280   0.281   0.291   0.288   0.284   0.286   0.301   0.286   0.283   0.280   0.280   0.279   0.263   0.265   0.274
   121.90    0.267   0.270   0.279   0.290   0.298   0.292   0.289   0.284   0.290   0.289   0.294   0.277   0.285   0.291   0.291   0.294   0.300   0.298   0.292   0.284   0.280   0.286   0.282   0.290   0.281   0.279   0.291   0.291   0.278   0.276   0.290   0.278   0.281   0.276   0.274
   117.25    0.272   0.272   0.275   0.286   0.290   0.289   0.287   0.282   0.283   0.293   0.295   0.276   0.285   0.287   0.285   0.289   0.300   0.299   0.297   0.292   0.282   0.280   0.288   0.288   0.270   0.280   0.286   0.284   0.290   0.287   0.280   0.279   0.286   0.278   0.276
   112.60    0.281   0.279   0.296   0.291   0.284   0.293   0.293   0.287   0.289   0.275   0.290   0.285   0.280   0.278   0.290   0.284   0.285   0.283   0.292   0.285   0.279   0.282   0.292   0.285   0.278   0.279   0.282   0.279   0.275   0.286   0.280   0.284   0.280   0.282   0.266
   107.95    0.276   0.279   0.296   0.294   0.291   0.291   0.284   0.287   0.297   0.280   0.287   0.285   0.286   0.283   0.290   0.282   0.281   0.280   0.284   0.275   0.279   0.284   0.285   0.289   0.276   0.277   0.274   0.276   0.290   0.291   0.288   0.290   0.276   0.272   0.266
   103.30    0.280   0.281   0.285   0.282   0.279   0.284   0.285   0.285   0.291   0.286   0.279   0.279   0.278   0.284   0.281   0.278   0.283   0.280   0.275   0.280   0.286   0.283   0.290   0.280   0.272   0.273   0.276   0.291   0.292   0.291   0.290   0.288   0.278   0.273   0.274
    98.65    0.284   0.281   0.283   0.293   0.283   0.289   0.284   0.284   0.295   0.283   0.282   0.276   0.276   0.278   0.272   0.283   0.279   0.274   0.285   0.276   0.277   0.299   0.291   0.287   0.280   0.278   0.292   0.292   0.289   0.292   0.283   0.273   0.275   0.273   0.272
    94.00    0.282   0.278   0.273   0.278   0.292   0.284   0.294   0.294   0.289   0.289   0.282   0.274   0.276   0.288   0.282   0.269   0.273   0.285   0.292   0.275   0.286   0.289   0.286   0.281   0.278   0.281   0.291   0.300   0.282   0.289   0.286   0.272   0.276   0.276   0.276
    89.35    0.287   0.293   0.283   0.281   0.279   0.290   0.288   0.292   0.298   0.303   0.289   0.281   0.275   0.289   0.286   0.285   0.279   0.271   0.283   0.290   0.291   0.284   0.288   0.287   0.278   0.288   0.293   0.282   0.285   0.299   0.302   0.280   0.281   0.279   0.286
    84.70    0.297   0.302   0.295   0.298   0.295   0.288   0.282   0.291   0.295   0.298   0.302   0.286   0.274   0.295   0.290   0.283   0.285   0.283   0.289   0.290   0.284   0.276   0.282   0.275   0.276   0.285   0.296   0.278   0.290   0.302   0.299   0.297   0.294   0.282   0.287
    80.05    0.293   0.296   0.293   0.309   0.302   0.289   0.279   0.287   0.285   0.299   0.297   0.302   0.297   0.291   0.299   0.296   0.302   0.293   0.283   0.288   0.292   0.283   0.281   0.305   0.297   0.289   0.282   0.284   0.285   0.303   0.308   0.298   0.297   0.297   0.285
    75.40    0.304   0.310   0.304   0.303   0.299   0.285   0.293   0.285   0.284   0.298   0.313   0.299   0.294   0.286   0.298   0.296   0.289   0.281   0.276   0.281   0.289   0.292   0.286   0.291   0.298   0.273   0.275   0.291   0.298   0.285   0.302   0.305   0.299   0.278   0.294
    70.75    0.296   0.312   0.306   0.304   0.293   0.299   0.287   0.293   0.287   0.288   0.303   0.299   0.292   0.289   0.291   0.291   0.294   0.286   0.294   0.285   0.289   0.293   0.299   0.294   0.292   0.276   0.287   0.294   0.308   0.295   0.287   0.292   0.293   0.292   0.284
    66.10    0.287   0.301   0.308   0.299   0.296   0.296   0.293   0.285   0.304   0.295   0.293   0.300   0.285   0.282   0.290   0.289   0.294   0.284   0.295   0.292   0.290   0.322   0.319   0.301   0.286   0.291   0.294   0.296   0.308   0.295   0.289   0.293   0.288   0.290   0.284
    61.45    0.294   0.291   0.292   0.295   0.299   0.307   0.287   0.291   0.299   0.298   0.290   0.288   0.287   0.279   0.273   0.284   0.296   0.302   0.289   0.297   0.312   0.304   0.316   0.304   0.291   0.304   0.306   0.283   0.299   0.297   0.288   0.291   0.279   0.277   0.284
    56.80    0.302   0.301   0.292   0.292   0.295   0.300   0.289   0.292   0.296   0.297   0.288   0.285   0.301   0.287   0.280   0.278   0.292   0.302   0.295   0.289   0.306   0.306   0.304   0.309   0.308   0.302   0.298   0.297   0.294   0.300   0.294   0.285   0.284   0.284   0.285
    52.15    0.307   0.308   0.304   0.298   0.307   0.299   0.294   0.294   0.295   0.296   0.279   0.288   0.295   0.296   0.278   0.282   0.291   0.283   0.297   0.287   0.296   0.288   0.297   0.301   0.304   0.313   0.304   0.299   0.291   0.293   0.297   0.291   0.285   0.277   0.278
    47.50    0.307   0.303   0.307   0.304   0.297   0.296   0.303   0.290   0.291   0.302   0.292   0.292   0.289   0.283   0.290   0.283   0.286   0.282   0.286   0.290   0.284   0.285   0.282   0.304   0.310   0.304   0.291   0.277   0.282   0.287   0.291   0.282   0.284   0.276   0.280
    42.85    0.293   0.303   0.301   0.304   0.289   0.291   0.298   0.295   0.291   0.292   0.293   0.292   0.285   0.288   0.287   0.285   0.273   0.275   0.277   0.281   0.288   0.299   0.288   0.301   0.295   0.298   0.297   0.285   0.291   0.291   0.285   0.291   0.277   0.281   0.279
    38.20    0.303   0.291   0.304   0.292   0.288   0.292   0.291   0.294   0.300   0.292   0.303   0.293   0.295   0.293   0.298   0.285   0.282   0.279   0.274   0.282   0.291   0.300   0.294   0.299   0.297   0.295   0.286   0.281   0.277   0.286   0.288   0.283   0.276   0.280   0.284
    33.55    0.295   0.299   0.299   0.293   0.288   0.290   0.283   0.296   0.301   0.303   0.287   0.294   0.286   0.280   0.284   0.292   0.300   0.296   0.288   0.296   0.294   0.308   0.296   0.293   0.297   0.303   0.295   0.293   0.290   0.281   0.291   0.289   0.277   0.277   0.280
    28.90    0.302   0.288   0.300   0.293   0.288   0.286   0.292   0.294   0.303   0.289   0.286   0.293   0.287   0.284   0.284   0.293   0.303   0.308   0.305   0.289   0.291   0.303   0.300   0.295   0.292   0.297   0.288   0.295   0.299   0.286   0.287   0.262   0.271   0.275   0.269
    24.25    0.295   0.281   0.286   0.278   0.284   0.289   0.296   0.299   0.294   0.285   0.294   0.291   0.294   0.293   0.295   0.297   0.304   0.307   0.302   0.290   0.295   0.304   0.292   0.298   0.295   0.291   0.296   0.302   0.310   0.290   0.294   0.281   0.281   0.281   0.273
    19.60    0.280   0.281   0.275   0.286   0.283   0.282   0.289   0.293   0.284   0.284   0.288   0.293   0.295   0.286   0.278   0.292   0.297   0.311   0.306   0.294   0.296   0.304   0.296   0.293   0.290   0.295   0.305   0.309   0.307   0.292   0.300   0.297   0.286   0.286   0.279
    14.95    0.280   0.277   0.279   0.278   0.285   0.280   0.283   0.274   0.277   0.283   0.287   0.279   0.290   0.289   0.296   0.293   0.287   0.298   0.307   0.289   0.288   0.295   0.295   0.298   0.294   0.278   0.297   0.307   0.313   0.312   0.297   0.303   0.290   0.277   0.281
    10.30    0.279   0.279   0.280   0.273   0.286   0.286   0.278   0.277   0.272   0.282   0.288   0.286   0.278   0.288   0.289   0.293   0.290   0.299   0.287   0.288   0.295   0.306   0.297   0.298   0.301   0.285   0.289   0.298   0.302   0.298   0.295   0.289   0.282   0.291   0.290
     5.65    0.288   0.282   0.282   0.272   0.274   0.281   0.277   0.278   0.282   0.273   0.285   0.286   0.279   0.278   0.279   0.284   0.289   0.297   0.291   0.288   0.287   0.301   0.306   0.301   0.301   0.293   0.297   0.291   0.292   0.293   0.290   0.290   0.291   0.288   0.283
     1.00    0.287   0.289   0.279   0.280   0.277   0.278   0.279   0.281   0.279   0.289   0.283   0.291   0.274   0.269   0.284   0.293   0.285   0.287   0.288   0.294   0.294   0.300   0.297   0.304   0.298   0.294   0.280   0.289   0.290   0.285   0.294   0.292   0.288   0.299   0.290

   Mean standard deviation across all grid points:
      u component:    0.536 m/s
      v component:    0.475 m/s
      w component:    0.287 m/s


U-component (X) statistics from the interpolated hub point:

   Mean =   9.9913 m/s
   TI   =   5.5833 %


Processing complete.  6087.2 CPU seconds used.
