
This summary file was generated by TurbSim (from OpenFAST-v3.5.3) on 20-Apr-2025 at 01:47:48.


Runtime Options:

 916078875  Random seed #1
    RANLUX  Type of random number generator
         F  Output binary HH turbulence parameters?
         F  Output formatted turbulence parameters?
         F  Output AeroDyn HH files?
         T  Output AeroDyn FF files?
         F  Output BLADED FF files?
         F  Output tower data?
         F  Output HAWC FF files?
         F  Output formatted FF files?
         T  Output coherent turbulence time step file?
 0 -  NONE  IEC turbulence models scaled to exact specified standard deviation


Turbine/Model Specifications:

        37  Vertical grid-point matrix dimension
        35  Horizontal grid-point matrix dimension
     0.250  Time step [seconds]
   900.000  Analysis time [seconds]
   900.000  Usable output time [seconds]
    89.350  Hub height [m]
   167.400  Grid height [m]
   158.100  Grid width [m]
     0.000  Vertical flow angle [degrees]
     0.000  Horizontal flow angle [degrees]


Meteorological Boundary Conditions:

    TIMESR  User-input time series spectral model
       N/A  IEC standard
       N/A  IEC turbulence characteristic
       N/A  IEC turbulence type
       N/A  IEC Extreme Turbulence Model (ETM) "c" parameter [m/s]
       PL   Wind profile type
    90.000  Reference height [m]
    10.000  Reference wind speed [m/s]
       N/A  Jet height [m]
     0.120  Power law exponent
     0.030  Surface roughness length [m]


Non-IEC Meteorological Boundary Conditions:

    45.000  Site latitude [degrees]
     0.050  Gradient Richardson number
     0.480  Friction or shear velocity [m/s]
       N/A  Mixing layer depth [m]
       N/A  Mean hub u'w' Reynolds stress
       N/A  Mean hub u'v' Reynolds stress
       N/A  Mean hub v'w' Reynolds stress


Spatial Coherence Models:

       IEC  u-component coherence model
       IEC  v-component coherence model
       IEC  w-component coherence model
(   12.000, 0.353E-03)  u-component coherence parameters
(   12.000, 0.353E-03)  v-component coherence parameters
(   12.000, 0.353E-03)  w-component coherence parameters
       N/A  Coherence exponent


Coherent Turbulence Scaling Parameters:

.\EventData
            Name of the path containing the coherent turbulence data files
       les  Type of coherent turbulence data files
     1.000  Disturbance scale (ratio of wave height to rotor diameter)
     0.500  Fractional location of tower centerline from right
     0.500  Fractional location of hub height from the bottom of the dataset
    30.000  Minimum start time for coherent structures [seconds]


Profiles from User-Defined Time-Series Input:

  Height   Wind Speed   Horizontal Angle   Vertical Angle
   (m)        (m/s)          (deg)              (deg)    
  ------   ----------   ----------------   --------------
   94.00      10.00          -0.63               -0.00


You have requested that the following file(s) be generated:

   /kfs3/scratch/agupta/Projects/RL_Incubator/FinalRuns_Veer/Seed4/./FFSim_Seed4/Cond00_v10.0_PL0.12_TI6.0/Case0_wdirp00/Seed_0/TurbSim/HighT18.bts (AeroDyn/TurbSim full-field wind file)


Turbulence Simulation Scaling Parameter Summary:

   Turbulence model used                            =  User-input time series
   Gradient Richardson number                       =    0.050
   Monin-Obukhov (M-O) z/L parameter                =    0.067
   Monin-Obukhov (M-O) length scale                 = 1340.250 m
   Mean wind speed at hub height                    =    9.991 m/s

   Wind profile type                                =  Power law
   Power law exponent                               =    0.120
   Mean shear across rotor disk                     =    0.019 (m/s)/m
   Assumed rotor diameter                           =  158.100 m
   Surface roughness length                         =    0.030 m

   Nyquist frequency of turbulent wind field        =    2.000 Hz

   Number of time steps in the FFT                  =     3600
   Number of time steps output                      =     3600
   Number of points simulated                       =     1296


Mean Flow Angles:

   Vertical   =   0.0 degrees
   Horizontal =   0.0 degrees

Mean Wind Speed Profile:

   Height    Wind Speed   Horizontal Angle  Vertical Angle  U-comp (X)   V-comp (Y)   W-comp (Z)
     (m)        (m/s)         (degrees)       (degrees)       (m/s)        (m/s)        (m/s)   
   ------    ----------   ----------------  --------------  ----------   ----------   ----------
    168.4       10.78            0.00            0.00         10.78         0.00         0.00
    163.7       10.74            0.00            0.00         10.74         0.00         0.00
    159.1       10.71            0.00            0.00         10.71         0.00         0.00
    154.4       10.67            0.00            0.00         10.67         0.00         0.00
    149.8       10.63            0.00            0.00         10.63         0.00         0.00
    145.1       10.59            0.00            0.00         10.59         0.00         0.00
    140.5       10.55            0.00            0.00         10.55         0.00         0.00
    135.8       10.51            0.00            0.00         10.51         0.00         0.00
    131.2       10.46            0.00            0.00         10.46         0.00         0.00
    126.5       10.42            0.00            0.00         10.42         0.00         0.00
    121.9       10.37            0.00            0.00         10.37         0.00         0.00
    117.2       10.32            0.00            0.00         10.32         0.00         0.00
    112.6       10.27            0.00            0.00         10.27         0.00         0.00
    107.9       10.22            0.00            0.00         10.22         0.00         0.00
    103.3       10.17            0.00            0.00         10.17         0.00         0.00
     98.6       10.11            0.00            0.00         10.11         0.00         0.00
     94.0       10.05            0.00            0.00         10.05         0.00         0.00
     89.3        9.99            0.00            0.00          9.99         0.00         0.00
     84.7        9.93            0.00            0.00          9.93         0.00         0.00
     80.0        9.86            0.00            0.00          9.86         0.00         0.00
     75.4        9.79            0.00            0.00          9.79         0.00         0.00
     70.7        9.72            0.00            0.00          9.72         0.00         0.00
     66.1        9.64            0.00            0.00          9.64         0.00         0.00
     61.4        9.55            0.00            0.00          9.55         0.00         0.00
     56.8        9.46            0.00            0.00          9.46         0.00         0.00
     52.1        9.37            0.00            0.00          9.37         0.00         0.00
     47.5        9.26            0.00            0.00          9.26         0.00         0.00
     42.8        9.15            0.00            0.00          9.15         0.00         0.00
     38.2        9.02            0.00            0.00          9.02         0.00         0.00
     33.5        8.88            0.00            0.00          8.88         0.00         0.00
     28.9        8.73            0.00            0.00          8.73         0.00         0.00
     24.2        8.54            0.00            0.00          8.54         0.00         0.00
     19.6        8.33            0.00            0.00          8.33         0.00         0.00
     14.9        8.06            0.00            0.00          8.06         0.00         0.00
     10.3        7.71            0.00            0.00          7.71         0.00         0.00
      5.6        7.17            0.00            0.00          7.17         0.00         0.00
      1.0        5.83            0.00            0.00          5.83         0.00         0.00


Harvested Random Seeds after Generation of the Random Numbers:

     65026800 K 1
            0 K 2


Hub-Height Simulated Turbulence Statistical Summary:

   Type of Wind        Min (m/s)   Mean (m/s)    Max (m/s)  Sigma (m/s)       TI (%)
   ----------------    ---------   ----------    ---------  -----------       ------
   Longitudinal (u)         8.45         9.99        11.84        0.564        5.649
   Lateral (v)             -1.56         0.00         1.38        0.444        4.442
   Vertical (w)            -1.00         0.00         1.03        0.282        2.827
   U component              8.45         9.99        11.84        0.564        5.649
   V component             -1.56         0.00         1.38        0.444        4.442
   W component             -1.00         0.00         1.03        0.282        2.827
   Horizontal (U&V)         8.45        10.00        11.85        0.566        5.658
   Total                    8.46        10.01        11.85        0.565        5.651

                       Min Reynolds     Mean Reynolds    Max Reynolds    Correlation
   Product             Stress (m/s)^2   Stress (m/s)^2   Stress (m/s)^2  Coefficient
   ----------------    --------------   --------------   --------------  -----------
   u'w'                     -0.858            -0.008             0.849        -0.053
   u'v'                     -1.328             0.009             1.568         0.035
   v'w'                     -0.614            -0.003             0.874        -0.024


   Friction Velocity (Ustar)  =      0.091 m/s
   Maximum Instantaneous TKE  =      1.975 (m/s)^2
   Maximum Instantaneous CTKE =      0.799 (m/s)^2


Grid Point Variance Summary:

   Y-coord  -79.05  -74.40  -69.75  -65.10  -60.45  -55.80  -51.15  -46.50  -41.85  -37.20  -32.55  -27.90  -23.25  -18.60  -13.95   -9.30   -4.65    0.00    4.65    9.30   13.95   18.60   23.25   27.90   32.55   37.20   41.85   46.50   51.15   55.80   60.45   65.10   69.75   74.40   79.05

   Height   Standard deviation at grid points for the u component:
   168.40    0.620   0.611   0.592   0.585   0.587   0.534   0.517   0.555   0.544   0.542   0.566   0.575   0.555   0.564   0.539   0.576   0.571   0.594   0.617   0.636   0.608   0.575   0.548   0.487   0.464   0.489   0.465   0.488   0.535   0.505   0.540   0.529   0.510   0.516   0.506
   163.75    0.612   0.614   0.578   0.567   0.548   0.529   0.570   0.555   0.535   0.516   0.555   0.564   0.568   0.553   0.556   0.566   0.566   0.580   0.605   0.582   0.584   0.573   0.531   0.484   0.476   0.485   0.473   0.480   0.496   0.541   0.506   0.544   0.540   0.541   0.546
   159.10    0.592   0.614   0.575   0.553   0.549   0.520   0.515   0.512   0.523   0.514   0.543   0.542   0.561   0.554   0.579   0.576   0.586   0.572   0.582   0.578   0.558   0.536   0.530   0.480   0.483   0.468   0.482   0.503   0.516   0.547   0.526   0.518   0.514   0.546   0.519
   154.45    0.608   0.610   0.576   0.572   0.533   0.521   0.471   0.488   0.499   0.503   0.550   0.540   0.531   0.564   0.567   0.589   0.546   0.573   0.553   0.554   0.566   0.545   0.546   0.503   0.492   0.484   0.477   0.477   0.509   0.493   0.513   0.503   0.511   0.522   0.522
   149.80    0.597   0.615   0.604   0.552   0.524   0.510   0.489   0.470   0.504   0.520   0.523   0.510   0.556   0.562   0.549   0.568   0.580   0.554   0.527   0.556   0.560   0.532   0.529   0.512   0.510   0.517   0.500   0.489   0.513   0.513   0.514   0.516   0.482   0.527   0.543
   145.15    0.616   0.592   0.590   0.566   0.552   0.504   0.494   0.488   0.501   0.503   0.494   0.503   0.510   0.526   0.537   0.534   0.558   0.558   0.534   0.557   0.559   0.550   0.500   0.525   0.507   0.535   0.521   0.511   0.494   0.492   0.529   0.499   0.513   0.519   0.560
   140.50    0.602   0.591   0.601   0.568   0.546   0.523   0.499   0.530   0.506   0.505   0.496   0.506   0.501   0.515   0.542   0.566   0.574   0.588   0.583   0.548   0.556   0.551   0.538   0.509   0.515   0.540   0.534   0.525   0.475   0.474   0.492   0.457   0.496   0.513   0.506
   135.85    0.554   0.569   0.585   0.571   0.549   0.551   0.520   0.526   0.514   0.517   0.529   0.537   0.512   0.518   0.536   0.565   0.548   0.574   0.555   0.540   0.519   0.534   0.527   0.507   0.523   0.514   0.499   0.480   0.468   0.460   0.464   0.456   0.453   0.499   0.496
   131.20    0.544   0.568   0.548   0.554   0.548   0.531   0.556   0.539   0.534   0.519   0.531   0.545   0.525   0.512   0.513   0.547   0.535   0.565   0.546   0.557   0.553   0.550   0.541   0.526   0.516   0.493   0.497   0.496   0.481   0.467   0.459   0.463   0.459   0.471   0.491
   126.55    0.543   0.542   0.519   0.549   0.512   0.532   0.545   0.537   0.564   0.531   0.572   0.552   0.543   0.536   0.536   0.542   0.534   0.520   0.503   0.560   0.539   0.527   0.517   0.550   0.525   0.531   0.521   0.506   0.460   0.457   0.418   0.429   0.444   0.464   0.516
   121.90    0.567   0.550   0.563   0.571   0.567   0.574   0.532   0.523   0.554   0.552   0.572   0.533   0.526   0.544   0.563   0.536   0.537   0.511   0.533   0.540   0.542   0.529   0.514   0.510   0.520   0.539   0.518   0.481   0.451   0.438   0.430   0.449   0.449   0.460   0.508
   117.25    0.560   0.537   0.520   0.535   0.542   0.568   0.535   0.545   0.554   0.558   0.562   0.569   0.531   0.529   0.561   0.547   0.562   0.526   0.518   0.527   0.530   0.507   0.515   0.493   0.523   0.517   0.499   0.440   0.458   0.439   0.457   0.472   0.482   0.483   0.488
   112.60    0.591   0.570   0.536   0.527   0.527   0.552   0.545   0.544   0.512   0.523   0.552   0.574   0.566   0.527   0.523   0.506   0.501   0.526   0.530   0.525   0.503   0.500   0.521   0.527   0.530   0.547   0.499   0.457   0.474   0.462   0.460   0.492   0.508   0.489   0.468
   107.95    0.586   0.587   0.595   0.531   0.571   0.540   0.528   0.511   0.523   0.527   0.525   0.549   0.541   0.532   0.489   0.476   0.505   0.522   0.527   0.500   0.507   0.510   0.523   0.520   0.495   0.511   0.465   0.467   0.489   0.462   0.448   0.480   0.489   0.455   0.453
   103.30    0.580   0.546   0.589   0.565   0.551   0.524   0.561   0.527   0.528   0.549   0.556   0.524   0.543   0.548   0.517   0.471   0.490   0.510   0.489   0.501   0.526   0.523   0.495   0.492   0.482   0.487   0.483   0.457   0.451   0.442   0.463   0.455   0.472   0.478   0.468
    98.65    0.587   0.590   0.593   0.565   0.549   0.540   0.568   0.561   0.528   0.580   0.567   0.551   0.569   0.547   0.529   0.466   0.512   0.520   0.511   0.499   0.489   0.488   0.486   0.496   0.489   0.474   0.430   0.464   0.471   0.450   0.441   0.456   0.477   0.490   0.501
    94.00    0.585   0.565   0.582   0.565   0.534   0.555   0.592   0.561   0.560   0.546   0.587   0.562   0.536   0.524   0.532   0.544   0.536   0.551   0.573   0.519   0.497   0.482   0.488   0.477   0.476   0.458   0.471   0.472   0.487   0.490   0.485   0.479   0.478   0.467   0.485
    89.35    0.587   0.587   0.579   0.550   0.558   0.586   0.588   0.559   0.563   0.584   0.586   0.570   0.529   0.495   0.533   0.577   0.578   0.564   0.546   0.540   0.503   0.489   0.475   0.474   0.461   0.456   0.473   0.495   0.499   0.499   0.488   0.513   0.501   0.458   0.455
    84.70    0.607   0.610   0.554   0.558   0.580   0.578   0.576   0.565   0.542   0.543   0.555   0.575   0.512   0.511   0.528   0.509   0.524   0.530   0.552   0.545   0.501   0.516   0.544   0.506   0.473   0.466   0.463   0.470   0.493   0.522   0.538   0.548   0.463   0.453   0.451
    80.05    0.589   0.579   0.534   0.567   0.548   0.575   0.586   0.586   0.568   0.546   0.549   0.540   0.508   0.530   0.508   0.524   0.480   0.521   0.523   0.521   0.501   0.497   0.514   0.499   0.458   0.461   0.475   0.489   0.514   0.497   0.511   0.507   0.471   0.452   0.433
    75.40    0.593   0.572   0.576   0.563   0.543   0.561   0.552   0.552   0.568   0.576   0.533   0.529   0.507   0.480   0.486   0.510   0.506   0.498   0.499   0.496   0.547   0.501   0.499   0.529   0.523   0.534   0.478   0.484   0.494   0.498   0.507   0.496   0.490   0.452   0.446
    70.75    0.583   0.580   0.570   0.546   0.518   0.536   0.548   0.522   0.523   0.555   0.507   0.517   0.454   0.436   0.482   0.484   0.511   0.503   0.492   0.521   0.525   0.507   0.500   0.536   0.510   0.480   0.489   0.504   0.487   0.501   0.510   0.518   0.511   0.463   0.442
    66.10    0.579   0.565   0.562   0.553   0.555   0.520   0.535   0.505   0.480   0.515   0.508   0.494   0.465   0.459   0.472   0.497   0.515   0.516   0.486   0.513   0.477   0.512   0.497   0.512   0.493   0.496   0.509   0.546   0.543   0.513   0.526   0.510   0.505   0.492   0.478
    61.45    0.552   0.557   0.562   0.552   0.534   0.528   0.531   0.504   0.474   0.505   0.501   0.471   0.472   0.480   0.483   0.494   0.492   0.537   0.521   0.524   0.503   0.513   0.511   0.512   0.519   0.532   0.553   0.573   0.581   0.543   0.546   0.557   0.546   0.488   0.476
    56.80    0.554   0.544   0.580   0.566   0.541   0.540   0.547   0.563   0.508   0.522   0.484   0.498   0.488   0.492   0.489   0.513   0.495   0.515   0.537   0.500   0.504   0.514   0.523   0.514   0.502   0.552   0.590   0.608   0.590   0.569   0.575   0.541   0.539   0.492   0.481
    52.15    0.549   0.541   0.563   0.563   0.541   0.538   0.530   0.545   0.529   0.524   0.499   0.514   0.473   0.475   0.503   0.490   0.536   0.519   0.521   0.517   0.499   0.503   0.531   0.519   0.520   0.531   0.544   0.600   0.582   0.573   0.533   0.539   0.542   0.509   0.504
    47.50    0.504   0.531   0.572   0.548   0.556   0.540   0.565   0.559   0.562   0.530   0.502   0.478   0.490   0.509   0.513   0.491   0.500   0.506   0.507   0.493   0.510   0.516   0.528   0.533   0.549   0.572   0.584   0.586   0.598   0.548   0.524   0.515   0.484   0.509   0.496
    42.85    0.529   0.525   0.549   0.586   0.553   0.543   0.566   0.550   0.566   0.539   0.540   0.523   0.502   0.530   0.514   0.508   0.498   0.493   0.466   0.506   0.534   0.514   0.517   0.532   0.561   0.569   0.562   0.588   0.594   0.536   0.505   0.503   0.523   0.512   0.505
    38.20    0.559   0.552   0.575   0.563   0.552   0.548   0.533   0.551   0.547   0.535   0.555   0.549   0.518   0.508   0.493   0.457   0.462   0.464   0.485   0.502   0.532   0.513   0.489   0.530   0.525   0.538   0.543   0.544   0.561   0.521   0.489   0.497   0.529   0.530   0.500
    33.55    0.512   0.560   0.582   0.572   0.560   0.577   0.568   0.532   0.538   0.554   0.541   0.565   0.535   0.518   0.503   0.490   0.481   0.479   0.479   0.484   0.519   0.523   0.486   0.471   0.489   0.516   0.509   0.501   0.526   0.500   0.484   0.495   0.516   0.552   0.513
    28.90    0.498   0.540   0.578   0.576   0.594   0.584   0.547   0.538   0.524   0.513   0.538   0.560   0.527   0.533   0.518   0.522   0.545   0.526   0.493   0.507   0.496   0.480   0.458   0.492   0.489   0.513   0.526   0.520   0.510   0.522   0.542   0.518   0.519   0.541   0.508
    24.25    0.491   0.537   0.558   0.570   0.556   0.562   0.529   0.503   0.536   0.524   0.528   0.519   0.511   0.490   0.497   0.514   0.547   0.537   0.495   0.523   0.496   0.503   0.453   0.488   0.486   0.497   0.508   0.513   0.533   0.538   0.551   0.560   0.506   0.534   0.522
    19.60    0.501   0.521   0.541   0.565   0.569   0.553   0.534   0.526   0.537   0.538   0.528   0.517   0.539   0.550   0.516   0.540   0.530   0.518   0.491   0.493   0.508   0.499   0.479   0.498   0.515   0.505   0.495   0.531   0.558   0.561   0.563   0.579   0.565   0.555   0.531
    14.95    0.523   0.529   0.528   0.540   0.554   0.539   0.504   0.524   0.506   0.515   0.530   0.525   0.557   0.550   0.546   0.551   0.516   0.495   0.478   0.473   0.490   0.480   0.493   0.521   0.524   0.511   0.508   0.485   0.544   0.560   0.592   0.575   0.577   0.589   0.560
    10.30    0.507   0.537   0.523   0.543   0.554   0.525   0.529   0.537   0.519   0.519   0.505   0.523   0.531   0.542   0.560   0.535   0.528   0.526   0.525   0.504   0.509   0.531   0.523   0.510   0.516   0.520   0.524   0.517   0.536   0.569   0.598   0.654   0.642   0.607   0.545
     5.65    0.529   0.548   0.537   0.558   0.507   0.528   0.556   0.549   0.534   0.531   0.517   0.516   0.522   0.538   0.532   0.529   0.509   0.533   0.536   0.517   0.533   0.544   0.530   0.531   0.536   0.553   0.546   0.565   0.554   0.582   0.614   0.617   0.620   0.610   0.559
     1.00    0.571   0.572   0.593   0.592   0.556   0.553   0.589   0.534   0.559   0.568   0.534   0.542   0.532   0.536   0.542   0.514   0.509   0.529   0.489   0.551   0.511   0.537   0.554   0.527   0.527   0.546   0.545   0.552   0.555   0.567   0.604   0.617   0.634   0.604   0.593

   Height   Standard deviation at grid points for the v component:
   168.40    0.467   0.467   0.482   0.467   0.466   0.438   0.470   0.451   0.448   0.431   0.465   0.441   0.466   0.495   0.486   0.465   0.482   0.476   0.471   0.468   0.483   0.443   0.425   0.440   0.435   0.451   0.468   0.458   0.463   0.455   0.477   0.468   0.421   0.423   0.459
   163.75    0.461   0.464   0.476   0.485   0.461   0.439   0.439   0.451   0.444   0.433   0.431   0.452   0.482   0.488   0.446   0.450   0.483   0.498   0.473   0.463   0.463   0.425   0.408   0.440   0.427   0.458   0.441   0.455   0.465   0.467   0.478   0.455   0.435   0.436   0.450
   159.10    0.460   0.457   0.477   0.487   0.449   0.453   0.435   0.453   0.434   0.419   0.446   0.443   0.469   0.436   0.438   0.429   0.456   0.487   0.490   0.461   0.437   0.422   0.449   0.425   0.458   0.471   0.460   0.469   0.484   0.458   0.480   0.438   0.460   0.457   0.458
   154.45    0.427   0.472   0.484   0.503   0.485   0.478   0.483   0.476   0.462   0.434   0.429   0.460   0.454   0.427   0.440   0.465   0.456   0.467   0.444   0.460   0.434   0.417   0.434   0.414   0.437   0.428   0.462   0.474   0.461   0.472   0.455   0.471   0.452   0.475   0.437
   149.80    0.433   0.465   0.493   0.506   0.495   0.502   0.497   0.508   0.506   0.459   0.454   0.458   0.450   0.444   0.465   0.484   0.452   0.442   0.466   0.423   0.420   0.440   0.446   0.417   0.411   0.451   0.467   0.497   0.487   0.432   0.465   0.453   0.433   0.450   0.445
   145.15    0.437   0.471   0.480   0.480   0.527   0.527   0.531   0.473   0.475   0.492   0.460   0.440   0.448   0.470   0.459   0.481   0.457   0.470   0.470   0.464   0.457   0.451   0.438   0.420   0.414   0.438   0.488   0.486   0.498   0.455   0.478   0.459   0.459   0.470   0.431
   140.50    0.417   0.448   0.446   0.465   0.496   0.499   0.510   0.482   0.481   0.484   0.492   0.496   0.479   0.467   0.456   0.470   0.491   0.518   0.500   0.490   0.493   0.508   0.461   0.424   0.402   0.441   0.482   0.495   0.487   0.476   0.480   0.464   0.467   0.453   0.440
   135.85    0.414   0.424   0.438   0.453   0.487   0.485   0.474   0.478   0.447   0.466   0.480   0.490   0.467   0.454   0.482   0.505   0.497   0.500   0.517   0.535   0.507   0.524   0.481   0.440   0.415   0.449   0.472   0.508   0.475   0.447   0.468   0.485   0.467   0.450   0.452
   131.20    0.439   0.463   0.461   0.480   0.484   0.467   0.414   0.414   0.427   0.474   0.503   0.511   0.475   0.476   0.486   0.480   0.511   0.529   0.504   0.513   0.492   0.516   0.521   0.460   0.416   0.443   0.464   0.500   0.454   0.428   0.450   0.458   0.441   0.446   0.456
   126.55    0.440   0.464   0.445   0.448   0.475   0.450   0.417   0.413   0.424   0.466   0.470   0.497   0.441   0.476   0.497   0.475   0.495   0.513   0.523   0.532   0.508   0.527   0.519   0.476   0.444   0.454   0.464   0.477   0.448   0.459   0.451   0.446   0.445   0.455   0.479
   121.90    0.426   0.430   0.428   0.447   0.454   0.445   0.433   0.406   0.435   0.451   0.468   0.459   0.458   0.463   0.479   0.477   0.511   0.541   0.502   0.502   0.491   0.501   0.505   0.505   0.458   0.450   0.449   0.451   0.440   0.447   0.438   0.464   0.476   0.463   0.481
   117.25    0.431   0.404   0.397   0.438   0.449   0.446   0.426   0.410   0.446   0.450   0.469   0.456   0.460   0.455   0.495   0.519   0.524   0.510   0.522   0.504   0.521   0.501   0.513   0.486   0.454   0.442   0.435   0.454   0.430   0.429   0.417   0.446   0.445   0.447   0.453
   112.60    0.427   0.412   0.376   0.433   0.447   0.441   0.430   0.427   0.440   0.463   0.467   0.463   0.478   0.462   0.497   0.501   0.514   0.512   0.515   0.536   0.541   0.507   0.500   0.503   0.460   0.451   0.465   0.448   0.422   0.414   0.432   0.428   0.454   0.428   0.432
   107.95    0.417   0.412   0.404   0.421   0.451   0.449   0.431   0.446   0.460   0.430   0.434   0.450   0.463   0.470   0.528   0.524   0.493   0.496   0.488   0.499   0.486   0.475   0.482   0.462   0.431   0.444   0.465   0.458   0.451   0.443   0.437   0.467   0.468   0.449   0.417
   103.30    0.408   0.403   0.398   0.428   0.436   0.440   0.458   0.463   0.436   0.432   0.444   0.439   0.468   0.482   0.507   0.519   0.484   0.464   0.474   0.490   0.451   0.437   0.412   0.419   0.412   0.435   0.446   0.462   0.468   0.451   0.450   0.478   0.470   0.454   0.418
    98.65    0.390   0.399   0.405   0.427   0.445   0.432   0.452   0.439   0.463   0.461   0.433   0.445   0.437   0.487   0.521   0.511   0.486   0.492   0.480   0.457   0.420   0.425   0.425   0.395   0.404   0.457   0.477   0.460   0.458   0.439   0.440   0.447   0.428   0.436   0.432
    94.00    0.397   0.385   0.390   0.409   0.420   0.454   0.451   0.448   0.465   0.449   0.437   0.440   0.430   0.465   0.489   0.489   0.467   0.462   0.459   0.448   0.437   0.407   0.415   0.400   0.422   0.444   0.433   0.419   0.426   0.404   0.436   0.438   0.428   0.435   0.456
    89.35    0.406   0.410   0.394   0.402   0.389   0.440   0.453   0.431   0.434   0.458   0.452   0.453   0.452   0.443   0.457   0.485   0.460   0.444   0.454   0.423   0.424   0.417   0.392   0.385   0.416   0.425   0.404   0.381   0.408   0.415   0.435   0.392   0.406   0.414   0.459
    84.70    0.396   0.402   0.399   0.390   0.387   0.424   0.447   0.434   0.476   0.480   0.453   0.420   0.438   0.438   0.435   0.450   0.451   0.434   0.456   0.424   0.405   0.420   0.406   0.411   0.408   0.404   0.392   0.393   0.394   0.425   0.421   0.426   0.416   0.421   0.448
    80.05    0.393   0.389   0.400   0.421   0.393   0.404   0.433   0.427   0.471   0.460   0.448   0.423   0.438   0.414   0.433   0.437   0.447   0.413   0.428   0.412   0.404   0.413   0.421   0.419   0.378   0.367   0.377   0.373   0.395   0.402   0.412   0.421   0.421   0.422   0.441
    75.40    0.388   0.393   0.389   0.402   0.408   0.402   0.386   0.429   0.450   0.463   0.431   0.420   0.410   0.394   0.412   0.424   0.439   0.412   0.431   0.407   0.388   0.381   0.396   0.404   0.413   0.391   0.384   0.387   0.365   0.382   0.365   0.395   0.392   0.426   0.422
    70.75    0.382   0.370   0.390   0.408   0.419   0.421   0.421   0.447   0.428   0.434   0.417   0.434   0.430   0.426   0.406   0.435   0.417   0.395   0.419   0.393   0.376   0.372   0.370   0.395   0.387   0.383   0.378   0.372   0.361   0.379   0.377   0.382   0.399   0.418   0.410
    66.10    0.390   0.402   0.386   0.378   0.394   0.406   0.417   0.437   0.436   0.425   0.432   0.420   0.434   0.423   0.432   0.443   0.437   0.407   0.414   0.378   0.359   0.357   0.370   0.374   0.374   0.387   0.374   0.366   0.380   0.369   0.377   0.403   0.397   0.416   0.415
    61.45    0.389   0.384   0.379   0.376   0.398   0.417   0.401   0.430   0.441   0.408   0.420   0.420   0.428   0.411   0.435   0.430   0.416   0.391   0.395   0.366   0.370   0.336   0.372   0.371   0.402   0.397   0.392   0.387   0.386   0.389   0.390   0.403   0.407   0.406   0.428
    56.80    0.394   0.385   0.370   0.377   0.384   0.396   0.405   0.428   0.439   0.440   0.427   0.424   0.418   0.422   0.412   0.418   0.399   0.393   0.367   0.371   0.355   0.353   0.356   0.360   0.390   0.394   0.367   0.404   0.383   0.416   0.406   0.408   0.415   0.411   0.438
    52.15    0.384   0.381   0.381   0.392   0.403   0.392   0.407   0.424   0.429   0.428   0.421   0.409   0.436   0.441   0.422   0.404   0.392   0.391   0.389   0.360   0.354   0.363   0.353   0.350   0.381   0.406   0.387   0.391   0.413   0.411   0.404   0.383   0.384   0.389   0.410
    47.50    0.405   0.390   0.398   0.398   0.416   0.399   0.396   0.418   0.403   0.415   0.425   0.413   0.402   0.431   0.427   0.406   0.399   0.367   0.355   0.339   0.348   0.356   0.338   0.355   0.372   0.396   0.387   0.418   0.449   0.459   0.443   0.407   0.397   0.416   0.412
    42.85    0.407   0.430   0.414   0.390   0.409   0.378   0.399   0.393   0.395   0.401   0.381   0.371   0.378   0.398   0.411   0.419   0.398   0.388   0.363   0.362   0.369   0.360   0.367   0.389   0.402   0.408   0.406   0.427   0.426   0.446   0.423   0.407   0.425   0.424   0.414
    38.20    0.392   0.413   0.414   0.390   0.407   0.381   0.367   0.372   0.371   0.370   0.356   0.369   0.349   0.380   0.396   0.413   0.401   0.416   0.421   0.385   0.377   0.362   0.374   0.396   0.413   0.403   0.416   0.408   0.440   0.428   0.423   0.423   0.427   0.425   0.423
    33.55    0.416   0.409   0.392   0.400   0.392   0.394   0.376   0.365   0.362   0.356   0.358   0.359   0.365   0.377   0.402   0.399   0.419   0.402   0.405   0.387   0.385   0.384   0.368   0.385   0.414   0.423   0.422   0.424   0.415   0.423   0.430   0.419   0.408   0.419   0.420
    28.90    0.402   0.383   0.401   0.411   0.422   0.434   0.387   0.368   0.374   0.371   0.376   0.366   0.364   0.390   0.396   0.400   0.430   0.401   0.403   0.389   0.390   0.377   0.385   0.391   0.394   0.428   0.422   0.455   0.417   0.440   0.447   0.454   0.438   0.407   0.407
    24.25    0.388   0.382   0.388   0.389   0.405   0.433   0.410   0.393   0.366   0.361   0.373   0.392   0.385   0.415   0.394   0.415   0.403   0.408   0.410   0.401   0.407   0.399   0.378   0.394   0.408   0.410   0.429   0.432   0.417   0.430   0.424   0.446   0.425   0.428   0.407
    19.60    0.416   0.404   0.387   0.388   0.392   0.403   0.413   0.392   0.369   0.359   0.397   0.395   0.403   0.405   0.395   0.418   0.406   0.408   0.393   0.429   0.414   0.414   0.408   0.401   0.422   0.416   0.424   0.409   0.412   0.398   0.422   0.421   0.416   0.441   0.421
    14.95    0.404   0.393   0.376   0.392   0.416   0.434   0.420   0.396   0.386   0.401   0.430   0.435   0.417   0.424   0.414   0.433   0.410   0.404   0.406   0.441   0.432   0.423   0.415   0.409   0.413   0.399   0.432   0.415   0.407   0.396   0.410   0.397   0.407   0.413   0.415
    10.30    0.392   0.383   0.382   0.400   0.411   0.423   0.401   0.401   0.405   0.399   0.440   0.439   0.442   0.457   0.423   0.396   0.401   0.414   0.419   0.444   0.428   0.413   0.436   0.428   0.423   0.445   0.449   0.409   0.430   0.420   0.420   0.391   0.394   0.389   0.407
     5.65    0.391   0.401   0.409   0.411   0.410   0.409   0.392   0.414   0.429   0.423   0.433   0.435   0.424   0.437   0.439   0.427   0.415   0.394   0.418   0.444   0.433   0.398   0.401   0.412   0.425   0.428   0.435   0.421   0.407   0.400   0.396   0.399   0.394   0.392   0.398
     1.00    0.414   0.409   0.409   0.420   0.398   0.401   0.400   0.418   0.429   0.423   0.425   0.439   0.455   0.429   0.435   0.445   0.444   0.402   0.412   0.436   0.436   0.394   0.379   0.387   0.408   0.438   0.432   0.402   0.385   0.368   0.360   0.384   0.393   0.391   0.401

   Height   Standard deviation at grid points for the w component:
   168.40    0.275   0.282   0.288   0.270   0.270   0.275   0.280   0.282   0.264   0.259   0.262   0.264   0.261   0.266   0.264   0.276   0.275   0.264   0.266   0.266   0.256   0.263   0.265   0.270   0.269   0.277   0.271   0.277   0.269   0.264   0.261   0.264   0.265   0.274   0.266
   163.75    0.268   0.279   0.271   0.280   0.278   0.276   0.287   0.281   0.267   0.257   0.247   0.258   0.262   0.260   0.263   0.271   0.267   0.269   0.267   0.268   0.264   0.254   0.262   0.271   0.272   0.279   0.275   0.268   0.265   0.266   0.276   0.281   0.271   0.273   0.274
   159.10    0.273   0.274   0.274   0.285   0.288   0.283   0.286   0.279   0.270   0.270   0.253   0.259   0.251   0.263   0.272   0.265   0.259   0.264   0.276   0.267   0.251   0.264   0.261   0.265   0.278   0.276   0.272   0.265   0.271   0.267   0.269   0.280   0.281   0.274   0.279
   154.45    0.278   0.271   0.271   0.285   0.275   0.282   0.276   0.275   0.274   0.263   0.266   0.256   0.265   0.266   0.271   0.260   0.256   0.262   0.268   0.272   0.266   0.260   0.269   0.273   0.277   0.277   0.268   0.260   0.272   0.277   0.276   0.280   0.283   0.273   0.264
   149.80    0.279   0.277   0.272   0.272   0.276   0.279   0.279   0.276   0.266   0.265   0.265   0.247   0.255   0.252   0.265   0.260   0.261   0.263   0.278   0.270   0.270   0.270   0.268   0.283   0.275   0.273   0.268   0.270   0.265   0.263   0.279   0.269   0.271   0.288   0.276
   145.15    0.280   0.268   0.281   0.277   0.281   0.282   0.282   0.285   0.270   0.269   0.267   0.254   0.253   0.260   0.260   0.262   0.266   0.271   0.276   0.275   0.261   0.257   0.264   0.275   0.278   0.275   0.287   0.277   0.266   0.257   0.274   0.273   0.274   0.280   0.280
   140.50    0.265   0.273   0.284   0.278   0.277   0.276   0.277   0.274   0.268   0.270   0.264   0.245   0.252   0.260   0.260   0.267   0.268   0.260   0.260   0.265   0.269   0.273   0.266   0.273   0.279   0.286   0.293   0.286   0.272   0.268   0.279   0.282   0.279   0.273   0.276
   135.85    0.265   0.278   0.288   0.279   0.274   0.267   0.270   0.268   0.268   0.267   0.263   0.255   0.254   0.262   0.263   0.265   0.260   0.273   0.259   0.255   0.271   0.281   0.282   0.279   0.280   0.276   0.299   0.295   0.282   0.280   0.294   0.290   0.290   0.287   0.284
   131.20    0.266   0.277   0.287   0.275   0.270   0.263   0.254   0.263   0.265   0.261   0.266   0.269   0.265   0.267   0.265   0.269   0.269   0.266   0.267   0.264   0.256   0.268   0.270   0.277   0.283   0.289   0.288   0.285   0.278   0.285   0.290   0.285   0.295   0.279   0.284
   126.55    0.269   0.274   0.278   0.279   0.270   0.274   0.267   0.264   0.261   0.275   0.280   0.282   0.282   0.270   0.266   0.262   0.269   0.283   0.281   0.272   0.264   0.272   0.271   0.279   0.278   0.288   0.291   0.275   0.290   0.293   0.291   0.284   0.278   0.293   0.286
   121.90    0.265   0.272   0.290   0.276   0.278   0.265   0.262   0.266   0.267   0.275   0.275   0.286   0.274   0.285   0.279   0.266   0.267   0.278   0.271   0.274   0.260   0.269   0.267   0.270   0.276   0.286   0.284   0.274   0.285   0.296   0.288   0.278   0.296   0.295   0.279
   117.25    0.276   0.276   0.292   0.277   0.285   0.275   0.264   0.273   0.284   0.281   0.278   0.283   0.294   0.287   0.275   0.267   0.266   0.274   0.267   0.270   0.266   0.258   0.266   0.269   0.273   0.278   0.281   0.278   0.291   0.287   0.283   0.286   0.282   0.272   0.275
   112.60    0.277   0.272   0.279   0.281   0.283   0.273   0.267   0.283   0.287   0.281   0.266   0.282   0.296   0.286   0.279   0.268   0.266   0.269   0.263   0.274   0.276   0.272   0.279   0.274   0.289   0.287   0.280   0.290   0.289   0.287   0.281   0.277   0.276   0.275   0.270
   107.95    0.281   0.293   0.274   0.270   0.278   0.289   0.275   0.271   0.277   0.272   0.270   0.279   0.295   0.290   0.280   0.271   0.277   0.270   0.270   0.273   0.281   0.283   0.286   0.285   0.286   0.281   0.288   0.289   0.288   0.297   0.293   0.278   0.273   0.274   0.280
   103.30    0.283   0.277   0.270   0.263   0.267   0.270   0.276   0.267   0.274   0.265   0.272   0.286   0.299   0.292   0.275   0.272   0.282   0.273   0.274   0.272   0.291   0.300   0.296   0.295   0.278   0.275   0.274   0.281   0.288   0.291   0.280   0.272   0.270   0.279   0.280
    98.65    0.287   0.275   0.262   0.266   0.259   0.270   0.272   0.265   0.272   0.280   0.282   0.296   0.297   0.299   0.281   0.271   0.278   0.278   0.276   0.283   0.299   0.307   0.297   0.290   0.278   0.279   0.275   0.284   0.296   0.287   0.277   0.276   0.281   0.288   0.285
    94.00    0.288   0.276   0.264   0.266   0.268   0.270   0.274   0.264   0.270   0.266   0.286   0.287   0.290   0.306   0.293   0.288   0.281   0.270   0.276   0.296   0.298   0.300   0.288   0.278   0.274   0.263   0.271   0.280   0.276   0.280   0.286   0.273   0.272   0.279   0.277
    89.35    0.282   0.282   0.273   0.267   0.280   0.269   0.265   0.269   0.274   0.277   0.285   0.291   0.289   0.296   0.296   0.290   0.282   0.282   0.276   0.279   0.284   0.285   0.280   0.286   0.271   0.266   0.270   0.267   0.280   0.286   0.278   0.271   0.278   0.281   0.279
    84.70    0.289   0.272   0.276   0.278   0.277   0.270   0.273   0.271   0.278   0.278   0.284   0.285   0.284   0.285   0.275   0.278   0.273   0.273   0.266   0.279   0.273   0.287   0.279   0.284   0.281   0.272   0.263   0.270   0.274   0.275   0.273   0.279   0.272   0.278   0.274
    80.05    0.298   0.284   0.270   0.277   0.290   0.276   0.281   0.282   0.279   0.276   0.278   0.284   0.272   0.289   0.276   0.258   0.261   0.262   0.272   0.278   0.283   0.284   0.280   0.279   0.278   0.269   0.266   0.278   0.282   0.270   0.284   0.282   0.280   0.274   0.268
    75.40    0.286   0.300   0.286   0.281   0.282   0.267   0.283   0.277   0.277   0.285   0.281   0.278   0.276   0.275   0.274   0.261   0.263   0.259   0.265   0.277   0.271   0.268   0.273   0.282   0.274   0.273   0.262   0.275   0.268   0.274   0.279   0.268   0.271   0.267   0.264
    70.75    0.284   0.293   0.296   0.293   0.277   0.268   0.277   0.281   0.274   0.279   0.280   0.266   0.261   0.261   0.272   0.272   0.278   0.264   0.257   0.260   0.268   0.271   0.270   0.265   0.275   0.279   0.263   0.261   0.260   0.257   0.265   0.272   0.272   0.271   0.278
    66.10    0.286   0.294   0.288   0.278   0.276   0.264   0.272   0.276   0.275   0.283   0.280   0.280   0.267   0.259   0.267   0.274   0.287   0.271   0.262   0.266   0.261   0.260   0.264   0.264   0.268   0.267   0.268   0.271   0.269   0.259   0.259   0.264   0.272   0.277   0.278
    61.45    0.284   0.284   0.284   0.275   0.278   0.269   0.268   0.279   0.283   0.279   0.275   0.275   0.277   0.279   0.269   0.279   0.284   0.286   0.275   0.270   0.262   0.256   0.260   0.269   0.281   0.270   0.271   0.272   0.268   0.255   0.254   0.255   0.273   0.286   0.275
    56.80    0.292   0.292   0.289   0.277   0.274   0.270   0.278   0.283   0.278   0.278   0.284   0.292   0.283   0.293   0.282   0.271   0.282   0.286   0.279   0.269   0.273   0.265   0.267   0.268   0.283   0.273   0.272   0.272   0.267   0.260   0.258   0.260   0.266   0.278   0.277
    52.15    0.290   0.286   0.272   0.273   0.274   0.281   0.272   0.262   0.264   0.276   0.281   0.275   0.291   0.306   0.304   0.290   0.303   0.282   0.278   0.273   0.271   0.270   0.249   0.264   0.278   0.279   0.280   0.277   0.274   0.265   0.269   0.272   0.270   0.273   0.279
    47.50    0.287   0.279   0.271   0.269   0.269   0.268   0.259   0.261   0.272   0.274   0.282   0.270   0.289   0.295   0.303   0.304   0.303   0.284   0.267   0.274   0.273   0.270   0.270   0.265   0.273   0.271   0.269   0.273   0.278   0.273   0.276   0.278   0.268   0.270   0.271
    42.85    0.296   0.286   0.280   0.276   0.267   0.261   0.261   0.279   0.283   0.286   0.283   0.285   0.285   0.302   0.302   0.288   0.299   0.293   0.287   0.284   0.281   0.268   0.274   0.280   0.283   0.277   0.271   0.267   0.270   0.286   0.281   0.282   0.273   0.276   0.284
    38.20    0.284   0.281   0.275   0.273   0.270   0.260   0.260   0.259   0.280   0.281   0.287   0.293   0.293   0.291   0.286   0.282   0.286   0.289   0.281   0.291   0.285   0.282   0.278   0.274   0.272   0.281   0.274   0.271   0.274   0.276   0.288   0.280   0.273   0.264   0.271
    33.55    0.283   0.280   0.274   0.272   0.267   0.268   0.280   0.276   0.272   0.282   0.276   0.291   0.290   0.285   0.284   0.291   0.280   0.280   0.290   0.288   0.288   0.282   0.269   0.283   0.267   0.265   0.274   0.278   0.271   0.267   0.276   0.283   0.257   0.273   0.266
    28.90    0.293   0.291   0.275   0.268   0.281   0.268   0.269   0.271   0.281   0.276   0.281   0.288   0.292   0.283   0.271   0.278   0.281   0.276   0.277   0.285   0.290   0.294   0.292   0.294   0.286   0.267   0.273   0.273   0.255   0.259   0.268   0.275   0.267   0.269   0.272
    24.25    0.288   0.286   0.285   0.270   0.269   0.276   0.275   0.284   0.275   0.272   0.277   0.279   0.280   0.269   0.269   0.275   0.268   0.270   0.288   0.284   0.288   0.288   0.288   0.282   0.280   0.276   0.263   0.270   0.259   0.256   0.270   0.265   0.276   0.275   0.263
    19.60    0.291   0.285   0.266   0.269   0.277   0.271   0.283   0.289   0.277   0.266   0.271   0.271   0.275   0.267   0.268   0.276   0.280   0.276   0.280   0.274   0.294   0.282   0.281   0.273   0.279   0.277   0.272   0.260   0.261   0.252   0.254   0.268   0.266   0.273   0.268
    14.95    0.287   0.267   0.269   0.282   0.275   0.277   0.280   0.284   0.277   0.268   0.276   0.271   0.266   0.268   0.287   0.281   0.286   0.285   0.290   0.280   0.277   0.279   0.281   0.276   0.267   0.269   0.268   0.259   0.260   0.254   0.250   0.258   0.268   0.269   0.266
    10.30    0.295   0.284   0.268   0.273   0.269   0.279   0.278   0.274   0.273   0.276   0.279   0.271   0.271   0.275   0.282   0.282   0.284   0.278   0.287   0.284   0.280   0.276   0.270   0.275   0.272   0.270   0.275   0.261   0.256   0.251   0.256   0.259   0.257   0.266   0.272
     5.65    0.281   0.278   0.276   0.276   0.274   0.272   0.275   0.274   0.266   0.274   0.282   0.280   0.283   0.275   0.263   0.267   0.277   0.277   0.282   0.278   0.277   0.278   0.275   0.277   0.279   0.272   0.274   0.281   0.268   0.269   0.263   0.269   0.264   0.262   0.274
     1.00    0.276   0.279   0.273   0.272   0.276   0.277   0.277   0.278   0.278   0.276   0.282   0.281   0.287   0.273   0.280   0.276   0.271   0.271   0.284   0.280   0.284   0.289   0.276   0.283   0.268   0.270   0.282   0.285   0.277   0.274   0.271   0.272   0.266   0.272   0.280

   Mean standard deviation across all grid points:
      u component:    0.527 m/s
      v component:    0.431 m/s
      w component:    0.275 m/s


U-component (X) statistics from the interpolated hub point:

   Mean =   9.9913 m/s
   TI   =   5.6492 %


Processing complete.  6466.3 CPU seconds used.
