
This summary file was generated by TurbSim (from OpenFAST-v3.5.3) on 20-Apr-2025 at 01:33:45.


Runtime Options:

 916078875  Random seed #1
    RANLUX  Type of random number generator
         F  Output binary HH turbulence parameters?
         F  Output formatted turbulence parameters?
         F  Output AeroDyn HH files?
         T  Output AeroDyn FF files?
         F  Output BLADED FF files?
         F  Output tower data?
         F  Output HAWC FF files?
         F  Output formatted FF files?
         T  Output coherent turbulence time step file?
 0 -  NONE  IEC turbulence models scaled to exact specified standard deviation


Turbine/Model Specifications:

        37  Vertical grid-point matrix dimension
        35  Horizontal grid-point matrix dimension
     0.250  Time step [seconds]
   900.000  Analysis time [seconds]
   900.000  Usable output time [seconds]
    89.350  Hub height [m]
   167.400  Grid height [m]
   158.100  Grid width [m]
     0.000  Vertical flow angle [degrees]
     0.000  Horizontal flow angle [degrees]


Meteorological Boundary Conditions:

    TIMESR  User-input time series spectral model
       N/A  IEC standard
       N/A  IEC turbulence characteristic
       N/A  IEC turbulence type
       N/A  IEC Extreme Turbulence Model (ETM) "c" parameter [m/s]
       PL   Wind profile type
    90.000  Reference height [m]
    10.000  Reference wind speed [m/s]
       N/A  Jet height [m]
     0.120  Power law exponent
     0.030  Surface roughness length [m]


Non-IEC Meteorological Boundary Conditions:

    45.000  Site latitude [degrees]
     0.050  Gradient Richardson number
     0.480  Friction or shear velocity [m/s]
       N/A  Mixing layer depth [m]
       N/A  Mean hub u'w' Reynolds stress
       N/A  Mean hub u'v' Reynolds stress
       N/A  Mean hub v'w' Reynolds stress


Spatial Coherence Models:

       IEC  u-component coherence model
       IEC  v-component coherence model
       IEC  w-component coherence model
(   12.000, 0.353E-03)  u-component coherence parameters
(   12.000, 0.353E-03)  v-component coherence parameters
(   12.000, 0.353E-03)  w-component coherence parameters
       N/A  Coherence exponent


Coherent Turbulence Scaling Parameters:

.\EventData
            Name of the path containing the coherent turbulence data files
       les  Type of coherent turbulence data files
     1.000  Disturbance scale (ratio of wave height to rotor diameter)
     0.500  Fractional location of tower centerline from right
     0.500  Fractional location of hub height from the bottom of the dataset
    30.000  Minimum start time for coherent structures [seconds]


Profiles from User-Defined Time-Series Input:

  Height   Wind Speed   Horizontal Angle   Vertical Angle
   (m)        (m/s)          (deg)              (deg)    
  ------   ----------   ----------------   --------------
   94.00      10.00          -0.63                0.00


You have requested that the following file(s) be generated:

   /kfs3/scratch/agupta/Projects/RL_Incubator/FinalRuns_Veer/Seed4/./FFSim_Seed4/Cond00_v10.0_PL0.12_TI6.0/Case0_wdirp00/Seed_0/TurbSim/HighT4.bts (AeroDyn/TurbSim full-field wind file)


Turbulence Simulation Scaling Parameter Summary:

   Turbulence model used                            =  User-input time series
   Gradient Richardson number                       =    0.050
   Monin-Obukhov (M-O) z/L parameter                =    0.067
   Monin-Obukhov (M-O) length scale                 = 1340.250 m
   Mean wind speed at hub height                    =    9.991 m/s

   Wind profile type                                =  Power law
   Power law exponent                               =    0.120
   Mean shear across rotor disk                     =    0.019 (m/s)/m
   Assumed rotor diameter                           =  158.100 m
   Surface roughness length                         =    0.030 m

   Nyquist frequency of turbulent wind field        =    2.000 Hz

   Number of time steps in the FFT                  =     3600
   Number of time steps output                      =     3600
   Number of points simulated                       =     1296


Mean Flow Angles:

   Vertical   =   0.0 degrees
   Horizontal =   0.0 degrees

Mean Wind Speed Profile:

   Height    Wind Speed   Horizontal Angle  Vertical Angle  U-comp (X)   V-comp (Y)   W-comp (Z)
     (m)        (m/s)         (degrees)       (degrees)       (m/s)        (m/s)        (m/s)   
   ------    ----------   ----------------  --------------  ----------   ----------   ----------
    168.4       10.78            0.00            0.00         10.78         0.00         0.00
    163.7       10.74            0.00            0.00         10.74         0.00         0.00
    159.1       10.71            0.00            0.00         10.71         0.00         0.00
    154.4       10.67            0.00            0.00         10.67         0.00         0.00
    149.8       10.63            0.00            0.00         10.63         0.00         0.00
    145.1       10.59            0.00            0.00         10.59         0.00         0.00
    140.5       10.55            0.00            0.00         10.55         0.00         0.00
    135.8       10.51            0.00            0.00         10.51         0.00         0.00
    131.2       10.46            0.00            0.00         10.46         0.00         0.00
    126.5       10.42            0.00            0.00         10.42         0.00         0.00
    121.9       10.37            0.00            0.00         10.37         0.00         0.00
    117.2       10.32            0.00            0.00         10.32         0.00         0.00
    112.6       10.27            0.00            0.00         10.27         0.00         0.00
    107.9       10.22            0.00            0.00         10.22         0.00         0.00
    103.3       10.17            0.00            0.00         10.17         0.00         0.00
     98.6       10.11            0.00            0.00         10.11         0.00         0.00
     94.0       10.05            0.00            0.00         10.05         0.00         0.00
     89.3        9.99            0.00            0.00          9.99         0.00         0.00
     84.7        9.93            0.00            0.00          9.93         0.00         0.00
     80.0        9.86            0.00            0.00          9.86         0.00         0.00
     75.4        9.79            0.00            0.00          9.79         0.00         0.00
     70.7        9.72            0.00            0.00          9.72         0.00         0.00
     66.1        9.64            0.00            0.00          9.64         0.00         0.00
     61.4        9.55            0.00            0.00          9.55         0.00         0.00
     56.8        9.46            0.00            0.00          9.46         0.00         0.00
     52.1        9.37            0.00            0.00          9.37         0.00         0.00
     47.5        9.26            0.00            0.00          9.26         0.00         0.00
     42.8        9.15            0.00            0.00          9.15         0.00         0.00
     38.2        9.02            0.00            0.00          9.02         0.00         0.00
     33.5        8.88            0.00            0.00          8.88         0.00         0.00
     28.9        8.73            0.00            0.00          8.73         0.00         0.00
     24.2        8.54            0.00            0.00          8.54         0.00         0.00
     19.6        8.33            0.00            0.00          8.33         0.00         0.00
     14.9        8.06            0.00            0.00          8.06         0.00         0.00
     10.3        7.71            0.00            0.00          7.71         0.00         0.00
      5.6        7.17            0.00            0.00          7.17         0.00         0.00
      1.0        5.83            0.00            0.00          5.83         0.00         0.00


Harvested Random Seeds after Generation of the Random Numbers:

     65026800 K 1
            0 K 2


Hub-Height Simulated Turbulence Statistical Summary:

   Type of Wind        Min (m/s)   Mean (m/s)    Max (m/s)  Sigma (m/s)       TI (%)
   ----------------    ---------   ----------    ---------  -----------       ------
   Longitudinal (u)         8.09         9.99        11.50        0.499        4.997
   Lateral (v)             -1.73         0.00         1.58        0.497        4.974
   Vertical (w)            -0.96         0.00         1.02        0.287        2.877
   U component              8.09         9.99        11.50        0.499        4.997
   V component             -1.73         0.00         1.58        0.497        4.974
   W component             -0.96         0.00         1.02        0.287        2.877
   Horizontal (U&V)         8.10        10.00        11.51        0.502        5.014
   Total                    8.10        10.01        11.52        0.502        5.012

                       Min Reynolds     Mean Reynolds    Max Reynolds    Correlation
   Product             Stress (m/s)^2   Stress (m/s)^2   Stress (m/s)^2  Coefficient
   ----------------    --------------   --------------   --------------  -----------
   u'w'                     -0.875            -0.008             0.831        -0.058
   u'v'                     -1.227             0.057             1.693         0.229
   v'w'                     -1.327            -0.018             0.969        -0.125


   Friction Velocity (Ustar)  =      0.091 m/s
   Maximum Instantaneous TKE  =      1.919 (m/s)^2
   Maximum Instantaneous CTKE =      0.854 (m/s)^2


Grid Point Variance Summary:

   Y-coord  -79.05  -74.40  -69.75  -65.10  -60.45  -55.80  -51.15  -46.50  -41.85  -37.20  -32.55  -27.90  -23.25  -18.60  -13.95   -9.30   -4.65    0.00    4.65    9.30   13.95   18.60   23.25   27.90   32.55   37.20   41.85   46.50   51.15   55.80   60.45   65.10   69.75   74.40   79.05

   Height   Standard deviation at grid points for the u component:
   168.40    0.524   0.509   0.512   0.536   0.538   0.527   0.545   0.563   0.544   0.544   0.537   0.544   0.558   0.544   0.535   0.548   0.511   0.496   0.513   0.541   0.520   0.522   0.529   0.513   0.474   0.482   0.465   0.488   0.520   0.498   0.506   0.521   0.525   0.521   0.511
   163.75    0.527   0.533   0.510   0.501   0.517   0.509   0.563   0.550   0.544   0.525   0.521   0.525   0.560   0.541   0.523   0.503   0.494   0.483   0.518   0.496   0.527   0.533   0.513   0.477   0.467   0.457   0.472   0.481   0.500   0.512   0.502   0.514   0.518   0.529   0.519
   159.10    0.505   0.534   0.491   0.500   0.510   0.518   0.521   0.547   0.548   0.526   0.530   0.529   0.536   0.511   0.513   0.500   0.474   0.490   0.501   0.508   0.529   0.514   0.494   0.463   0.466   0.444   0.470   0.487   0.521   0.527   0.537   0.497   0.517   0.530   0.507
   154.45    0.511   0.517   0.517   0.512   0.517   0.515   0.514   0.544   0.551   0.526   0.539   0.540   0.511   0.512   0.474   0.486   0.484   0.483   0.518   0.519   0.545   0.515   0.506   0.500   0.468   0.466   0.473   0.486   0.512   0.500   0.507   0.494   0.519   0.533   0.512
   149.80    0.540   0.534   0.535   0.503   0.519   0.540   0.552   0.531   0.555   0.532   0.523   0.510   0.521   0.511   0.485   0.478   0.500   0.481   0.485   0.536   0.543   0.506   0.517   0.468   0.457   0.477   0.484   0.517   0.507   0.517   0.520   0.512   0.496   0.521   0.509
   145.15    0.560   0.554   0.545   0.524   0.519   0.499   0.523   0.531   0.562   0.532   0.519   0.521   0.517   0.483   0.466   0.470   0.497   0.486   0.515   0.510   0.510   0.513   0.458   0.490   0.519   0.498   0.503   0.505   0.497   0.508   0.505   0.504   0.508   0.520   0.519
   140.50    0.549   0.565   0.532   0.532   0.519   0.528   0.541   0.548   0.550   0.517   0.532   0.524   0.535   0.527   0.488   0.481   0.502   0.515   0.531   0.514   0.497   0.496   0.491   0.477   0.499   0.516   0.526   0.510   0.508   0.501   0.493   0.478   0.503   0.532   0.498
   135.85    0.524   0.540   0.534   0.547   0.523   0.502   0.520   0.547   0.520   0.521   0.528   0.546   0.528   0.517   0.504   0.497   0.510   0.524   0.506   0.499   0.502   0.469   0.482   0.489   0.518   0.518   0.521   0.502   0.544   0.511   0.480   0.488   0.497   0.524   0.509
   131.20    0.529   0.512   0.509   0.514   0.509   0.520   0.521   0.515   0.501   0.490   0.486   0.530   0.540   0.522   0.492   0.486   0.487   0.518   0.509   0.499   0.486   0.468   0.471   0.500   0.499   0.508   0.540   0.543   0.555   0.521   0.494   0.490   0.474   0.510   0.506
   126.55    0.515   0.514   0.505   0.518   0.525   0.519   0.492   0.489   0.491   0.491   0.517   0.525   0.515   0.509   0.485   0.484   0.470   0.488   0.484   0.475   0.460   0.454   0.460   0.526   0.508   0.516   0.509   0.527   0.504   0.492   0.474   0.453   0.428   0.476   0.528
   121.90    0.516   0.517   0.499   0.538   0.538   0.520   0.493   0.481   0.482   0.510   0.518   0.514   0.510   0.475   0.475   0.448   0.445   0.443   0.442   0.462   0.487   0.452   0.475   0.524   0.510   0.487   0.494   0.497   0.464   0.452   0.459   0.431   0.442   0.463   0.507
   117.25    0.511   0.505   0.505   0.515   0.516   0.525   0.474   0.502   0.489   0.503   0.493   0.499   0.508   0.500   0.478   0.447   0.451   0.451   0.437   0.492   0.496   0.490   0.511   0.503   0.492   0.488   0.488   0.458   0.493   0.452   0.453   0.472   0.474   0.483   0.488
   112.60    0.503   0.524   0.502   0.508   0.502   0.495   0.509   0.483   0.476   0.480   0.502   0.514   0.488   0.499   0.460   0.455   0.464   0.447   0.443   0.453   0.496   0.504   0.517   0.520   0.515   0.490   0.477   0.445   0.486   0.459   0.447   0.469   0.489   0.490   0.506
   107.95    0.453   0.513   0.520   0.498   0.526   0.520   0.483   0.462   0.473   0.466   0.481   0.504   0.477   0.465   0.460   0.460   0.465   0.445   0.455   0.463   0.499   0.507   0.526   0.500   0.493   0.481   0.482   0.470   0.486   0.449   0.452   0.479   0.473   0.495   0.489
   103.30    0.475   0.485   0.488   0.522   0.526   0.498   0.516   0.492   0.497   0.496   0.505   0.480   0.471   0.465   0.427   0.423   0.456   0.476   0.479   0.499   0.498   0.496   0.512   0.522   0.521   0.505   0.476   0.489   0.453   0.461   0.446   0.457   0.444   0.482   0.486
    98.65    0.467   0.478   0.513   0.506   0.500   0.511   0.543   0.553   0.519   0.510   0.517   0.486   0.449   0.450   0.455   0.453   0.463   0.495   0.484   0.475   0.461   0.497   0.483   0.491   0.509   0.501   0.472   0.459   0.476   0.477   0.463   0.441   0.441   0.481   0.496
    94.00    0.492   0.491   0.505   0.491   0.498   0.524   0.564   0.553   0.531   0.508   0.523   0.519   0.490   0.482   0.462   0.452   0.484   0.493   0.496   0.490   0.495   0.488   0.472   0.482   0.465   0.480   0.434   0.462   0.452   0.477   0.489   0.462   0.445   0.476   0.502
    89.35    0.480   0.483   0.510   0.494   0.526   0.540   0.556   0.533   0.521   0.538   0.541   0.522   0.499   0.480   0.488   0.469   0.486   0.499   0.490   0.496   0.475   0.499   0.487   0.473   0.476   0.462   0.441   0.432   0.484   0.499   0.499   0.507   0.487   0.484   0.505
    84.70    0.509   0.512   0.505   0.486   0.543   0.522   0.525   0.521   0.549   0.540   0.521   0.519   0.487   0.497   0.494   0.482   0.476   0.499   0.508   0.514   0.490   0.499   0.501   0.490   0.485   0.476   0.481   0.473   0.477   0.516   0.516   0.541   0.516   0.497   0.499
    80.05    0.525   0.517   0.485   0.507   0.537   0.527   0.532   0.534   0.540   0.536   0.543   0.538   0.529   0.508   0.527   0.520   0.508   0.513   0.509   0.526   0.482   0.538   0.507   0.512   0.483   0.479   0.495   0.514   0.517   0.506   0.513   0.519   0.539   0.494   0.496
    75.40    0.512   0.479   0.506   0.527   0.520   0.526   0.537   0.546   0.535   0.548   0.539   0.542   0.516   0.507   0.539   0.507   0.522   0.539   0.496   0.496   0.529   0.520   0.527   0.557   0.525   0.549   0.513   0.541   0.528   0.533   0.553   0.568   0.538   0.497   0.510
    70.75    0.482   0.475   0.497   0.486   0.495   0.544   0.570   0.520   0.542   0.566   0.536   0.573   0.547   0.510   0.525   0.527   0.540   0.543   0.533   0.530   0.536   0.550   0.556   0.561   0.545   0.546   0.536   0.540   0.534   0.543   0.558   0.562   0.562   0.525   0.492
    66.10    0.458   0.463   0.491   0.481   0.516   0.517   0.544   0.536   0.543   0.547   0.542   0.560   0.577   0.555   0.566   0.537   0.560   0.570   0.529   0.548   0.520   0.563   0.549   0.583   0.542   0.554   0.554   0.586   0.576   0.561   0.588   0.587   0.553   0.555   0.520
    61.45    0.481   0.477   0.510   0.508   0.541   0.522   0.515   0.537   0.534   0.536   0.550   0.538   0.563   0.571   0.561   0.580   0.556   0.550   0.552   0.546   0.520   0.514   0.557   0.545   0.554   0.545   0.588   0.591   0.584   0.593   0.612   0.610   0.608   0.541   0.518
    56.80    0.454   0.475   0.529   0.537   0.557   0.510   0.536   0.515   0.522   0.552   0.543   0.554   0.547   0.554   0.583   0.583   0.521   0.513   0.504   0.503   0.521   0.521   0.533   0.553   0.537   0.558   0.596   0.582   0.579   0.592   0.607   0.607   0.586   0.546   0.543
    52.15    0.465   0.458   0.506   0.527   0.535   0.524   0.504   0.522   0.505   0.549   0.529   0.547   0.530   0.521   0.558   0.553   0.543   0.497   0.488   0.512   0.510   0.502   0.506   0.517   0.519   0.556   0.577   0.582   0.560   0.571   0.564   0.577   0.543   0.537   0.545
    47.50    0.460   0.471   0.532   0.506   0.530   0.506   0.510   0.514   0.548   0.563   0.526   0.502   0.530   0.534   0.549   0.529   0.529   0.507   0.516   0.490   0.493   0.509   0.509   0.533   0.559   0.566   0.578   0.551   0.535   0.534   0.531   0.535   0.525   0.540   0.507
    42.85    0.476   0.484   0.517   0.519   0.542   0.513   0.547   0.554   0.533   0.515   0.533   0.526   0.524   0.520   0.523   0.509   0.508   0.495   0.485   0.493   0.490   0.494   0.526   0.507   0.548   0.562   0.565   0.563   0.553   0.529   0.507   0.509   0.544   0.528   0.506
    38.20    0.462   0.500   0.545   0.536   0.528   0.530   0.521   0.544   0.521   0.513   0.547   0.555   0.517   0.497   0.518   0.493   0.490   0.508   0.491   0.476   0.473   0.482   0.482   0.511   0.494   0.521   0.540   0.537   0.554   0.536   0.489   0.510   0.541   0.547   0.496
    33.55    0.443   0.502   0.529   0.529   0.526   0.536   0.526   0.503   0.518   0.513   0.519   0.534   0.527   0.504   0.503   0.534   0.495   0.490   0.481   0.482   0.484   0.478   0.479   0.477   0.495   0.538   0.512   0.531   0.551   0.528   0.485   0.491   0.504   0.523   0.496
    28.90    0.462   0.512   0.533   0.512   0.508   0.510   0.508   0.518   0.497   0.491   0.517   0.523   0.511   0.507   0.529   0.535   0.525   0.490   0.474   0.475   0.484   0.471   0.500   0.485   0.510   0.533   0.532   0.506   0.531   0.496   0.476   0.506   0.515   0.507   0.495
    24.25    0.453   0.516   0.507   0.518   0.497   0.504   0.509   0.513   0.536   0.516   0.523   0.502   0.488   0.486   0.501   0.496   0.498   0.485   0.459   0.489   0.458   0.483   0.467   0.491   0.506   0.497   0.502   0.484   0.502   0.506   0.503   0.500   0.488   0.485   0.496
    19.60    0.462   0.513   0.529   0.548   0.535   0.528   0.541   0.529   0.529   0.542   0.519   0.503   0.512   0.517   0.502   0.509   0.471   0.465   0.453   0.472   0.466   0.441   0.472   0.462   0.501   0.512   0.518   0.519   0.498   0.488   0.484   0.502   0.492   0.471   0.472
    14.95    0.497   0.517   0.521   0.547   0.546   0.535   0.500   0.535   0.535   0.520   0.554   0.514   0.534   0.525   0.528   0.497   0.456   0.457   0.469   0.474   0.470   0.453   0.460   0.493   0.483   0.498   0.522   0.534   0.527   0.496   0.474   0.497   0.476   0.469   0.494
    10.30    0.484   0.499   0.530   0.550   0.573   0.550   0.551   0.553   0.534   0.522   0.529   0.530   0.508   0.509   0.525   0.489   0.457   0.475   0.482   0.487   0.475   0.487   0.494   0.480   0.485   0.513   0.522   0.524   0.521   0.490   0.508   0.542   0.498   0.454   0.469
     5.65    0.489   0.523   0.537   0.544   0.541   0.575   0.541   0.525   0.525   0.537   0.529   0.503   0.495   0.486   0.488   0.476   0.459   0.469   0.494   0.486   0.468   0.494   0.514   0.520   0.489   0.501   0.527   0.544   0.532   0.480   0.516   0.497   0.504   0.483   0.493
     1.00    0.504   0.503   0.542   0.574   0.549   0.546   0.536   0.542   0.522   0.539   0.537   0.503   0.497   0.475   0.501   0.477   0.462   0.479   0.463   0.483   0.468   0.486   0.515   0.480   0.503   0.519   0.528   0.514   0.508   0.495   0.495   0.492   0.494   0.524   0.518

   Height   Standard deviation at grid points for the v component:
   168.40    0.420   0.394   0.398   0.412   0.420   0.429   0.453   0.473   0.423   0.404   0.421   0.419   0.417   0.410   0.428   0.419   0.448   0.450   0.456   0.451   0.438   0.463   0.475   0.510   0.514   0.507   0.515   0.512   0.519   0.500   0.489   0.473   0.459   0.442   0.441
   163.75    0.432   0.415   0.415   0.427   0.441   0.443   0.444   0.441   0.437   0.431   0.427   0.445   0.432   0.441   0.426   0.448   0.456   0.462   0.460   0.466   0.444   0.459   0.460   0.492   0.491   0.472   0.524   0.545   0.545   0.545   0.523   0.493   0.496   0.465   0.463
   159.10    0.443   0.420   0.441   0.429   0.443   0.456   0.437   0.428   0.443   0.438   0.464   0.451   0.464   0.450   0.442   0.458   0.494   0.463   0.470   0.451   0.473   0.481   0.484   0.471   0.489   0.505   0.535   0.555   0.539   0.528   0.532   0.484   0.516   0.507   0.510
   154.45    0.441   0.448   0.432   0.452   0.464   0.477   0.465   0.430   0.429   0.459   0.474   0.482   0.453   0.446   0.462   0.477   0.503   0.483   0.441   0.461   0.503   0.489   0.475   0.488   0.465   0.522   0.544   0.554   0.536   0.528   0.536   0.540   0.505   0.529   0.523
   149.80    0.458   0.429   0.443   0.451   0.463   0.469   0.447   0.422   0.433   0.438   0.453   0.458   0.422   0.432   0.437   0.478   0.478   0.475   0.451   0.470   0.485   0.486   0.474   0.460   0.469   0.510   0.561   0.585   0.578   0.549   0.550   0.536   0.495   0.537   0.550
   145.15    0.447   0.418   0.429   0.444   0.444   0.458   0.456   0.433   0.425   0.450   0.433   0.444   0.426   0.451   0.437   0.462   0.454   0.444   0.453   0.472   0.495   0.465   0.457   0.448   0.480   0.498   0.531   0.550   0.575   0.550   0.572   0.541   0.539   0.518   0.557
   140.50    0.437   0.422   0.440   0.454   0.426   0.414   0.439   0.445   0.429   0.442   0.438   0.456   0.454   0.457   0.460   0.455   0.450   0.459   0.460   0.485   0.493   0.493   0.475   0.455   0.471   0.509   0.509   0.525   0.539   0.586   0.570   0.520   0.518   0.534   0.545
   135.85    0.443   0.451   0.441   0.422   0.412   0.421   0.418   0.425   0.445   0.457   0.457   0.459   0.457   0.461   0.456   0.444   0.451   0.438   0.448   0.443   0.474   0.483   0.453   0.449   0.478   0.503   0.494   0.525   0.538   0.544   0.577   0.561   0.546   0.507   0.522
   131.20    0.474   0.455   0.455   0.437   0.407   0.426   0.446   0.415   0.444   0.443   0.451   0.468   0.480   0.482   0.476   0.462   0.452   0.462   0.449   0.449   0.455   0.468   0.474   0.456   0.464   0.492   0.479   0.489   0.521   0.543   0.541   0.560   0.540   0.522   0.517
   126.55    0.455   0.463   0.452   0.437   0.429   0.449   0.449   0.437   0.446   0.429   0.433   0.482   0.483   0.482   0.456   0.459   0.456   0.459   0.433   0.440   0.470   0.471   0.461   0.441   0.467   0.489   0.501   0.499   0.521   0.539   0.540   0.592   0.551   0.551   0.588
   121.90    0.483   0.452   0.461   0.449   0.456   0.444   0.446   0.463   0.451   0.426   0.447   0.480   0.488   0.507   0.459   0.466   0.470   0.456   0.459   0.461   0.476   0.472   0.461   0.481   0.488   0.511   0.512   0.516   0.524   0.567   0.548   0.552   0.576   0.569   0.584
   117.25    0.484   0.476   0.475   0.489   0.479   0.487   0.489   0.462   0.464   0.423   0.419   0.472   0.480   0.473   0.473   0.478   0.460   0.440   0.428   0.470   0.459   0.484   0.475   0.478   0.483   0.521   0.538   0.509   0.496   0.532   0.543   0.534   0.536   0.536   0.538
   112.60    0.529   0.496   0.486   0.492   0.508   0.489   0.477   0.477   0.479   0.479   0.471   0.473   0.480   0.466   0.466   0.475   0.454   0.487   0.505   0.469   0.445   0.470   0.488   0.503   0.493   0.533   0.521   0.516   0.520   0.520   0.555   0.542   0.525   0.487   0.524
   107.95    0.541   0.525   0.523   0.530   0.530   0.486   0.479   0.491   0.470   0.461   0.468   0.503   0.496   0.487   0.507   0.481   0.486   0.501   0.480   0.471   0.462   0.451   0.469   0.493   0.467   0.501   0.558   0.553   0.538   0.523   0.538   0.535   0.525   0.506   0.518
   103.30    0.534   0.552   0.522   0.542   0.534   0.510   0.504   0.467   0.454   0.455   0.478   0.522   0.518   0.539   0.517   0.502   0.495   0.513   0.511   0.470   0.481   0.461   0.456   0.489   0.528   0.555   0.561   0.558   0.576   0.572   0.559   0.550   0.525   0.569   0.522
    98.65    0.549   0.593   0.583   0.532   0.537   0.528   0.526   0.522   0.502   0.494   0.481   0.501   0.510   0.503   0.491   0.485   0.485   0.467   0.506   0.491   0.489   0.474   0.525   0.536   0.570   0.577   0.578   0.591   0.549   0.555   0.571   0.565   0.527   0.577   0.556
    94.00    0.604   0.611   0.593   0.569   0.538   0.525   0.521   0.514   0.532   0.530   0.498   0.513   0.499   0.521   0.492   0.454   0.462   0.464   0.500   0.502   0.519   0.511   0.511   0.556   0.584   0.550   0.584   0.583   0.545   0.490   0.530   0.549   0.533   0.553   0.598
    89.35    0.600   0.574   0.585   0.547   0.534   0.531   0.489   0.470   0.498   0.555   0.560   0.533   0.519   0.535   0.513   0.488   0.518   0.497   0.492   0.524   0.512   0.534   0.538   0.589   0.556   0.568   0.547   0.557   0.535   0.504   0.507   0.522   0.510   0.533   0.537
    84.70    0.576   0.599   0.558   0.560   0.546   0.521   0.475   0.460   0.522   0.518   0.548   0.542   0.525   0.523   0.515   0.523   0.527   0.530   0.518   0.509   0.534   0.536   0.551   0.575   0.570   0.581   0.568   0.531   0.501   0.498   0.500   0.538   0.512   0.505   0.513
    80.05    0.559   0.574   0.564   0.563   0.549   0.510   0.507   0.465   0.507   0.527   0.539   0.517   0.522   0.508   0.492   0.497   0.513   0.520   0.566   0.522   0.513   0.540   0.560   0.576   0.553   0.536   0.527   0.506   0.496   0.484   0.480   0.503   0.532   0.526   0.554
    75.40    0.543   0.596   0.579   0.581   0.514   0.510   0.527   0.501   0.525   0.468   0.506   0.519   0.500   0.471   0.493   0.481   0.525   0.526   0.548   0.570   0.526   0.567   0.561   0.567   0.575   0.574   0.520   0.525   0.502   0.496   0.469   0.494   0.498   0.533   0.525
    70.75    0.560   0.610   0.624   0.601   0.551   0.515   0.535   0.562   0.491   0.490   0.499   0.486   0.485   0.482   0.467   0.498   0.510   0.505   0.511   0.548   0.536   0.559   0.543   0.560   0.552   0.541   0.516   0.492   0.458   0.478   0.450   0.468   0.465   0.489   0.495
    66.10    0.579   0.612   0.608   0.570   0.566   0.560   0.540   0.538   0.523   0.506   0.501   0.509   0.517   0.485   0.484   0.478   0.467   0.507   0.500   0.529   0.556   0.555   0.533   0.547   0.544   0.531   0.472   0.457   0.447   0.460   0.449   0.463   0.459   0.481   0.513
    61.45    0.603   0.595   0.548   0.569   0.594   0.597   0.533   0.547   0.524   0.496   0.490   0.482   0.530   0.493   0.500   0.492   0.474   0.496   0.507   0.518   0.534   0.478   0.529   0.536   0.535   0.514   0.476   0.464   0.465   0.478   0.467   0.483   0.470   0.479   0.503
    56.80    0.606   0.600   0.571   0.532   0.568   0.563   0.572   0.521   0.518   0.471   0.470   0.486   0.513   0.520   0.504   0.481   0.468   0.505   0.490   0.503   0.513   0.483   0.498   0.500   0.495   0.495   0.469   0.473   0.454   0.484   0.468   0.495   0.477   0.475   0.524
    52.15    0.578   0.602   0.586   0.525   0.526   0.556   0.559   0.534   0.494   0.498   0.483   0.479   0.491   0.487   0.504   0.476   0.477   0.460   0.480   0.459   0.450   0.472   0.496   0.449   0.488   0.477   0.461   0.465   0.452   0.436   0.458   0.473   0.482   0.510   0.511
    47.50    0.616   0.612   0.564   0.541   0.528   0.563   0.535   0.554   0.533   0.536   0.507   0.478   0.476   0.481   0.487   0.496   0.466   0.465   0.439   0.433   0.450   0.470   0.482   0.441   0.456   0.462   0.457   0.454   0.450   0.454   0.465   0.485   0.500   0.503   0.489
    42.85    0.591   0.599   0.573   0.551   0.562   0.530   0.552   0.531   0.536   0.507   0.496   0.482   0.482   0.480   0.472   0.460   0.464   0.459   0.452   0.444   0.445   0.469   0.477   0.445   0.437   0.426   0.445   0.449   0.420   0.422   0.424   0.441   0.455   0.474   0.486
    38.20    0.566   0.555   0.572   0.539   0.566   0.546   0.506   0.500   0.520   0.502   0.477   0.500   0.486   0.475   0.477   0.484   0.446   0.461   0.491   0.474   0.475   0.439   0.457   0.456   0.430   0.445   0.454   0.453   0.449   0.440   0.427   0.447   0.452   0.456   0.475
    33.55    0.577   0.563   0.556   0.582   0.554   0.549   0.524   0.538   0.511   0.494   0.517   0.496   0.498   0.452   0.461   0.447   0.475   0.481   0.485   0.481   0.464   0.463   0.464   0.460   0.480   0.463   0.447   0.429   0.436   0.448   0.422   0.420   0.436   0.430   0.451
    28.90    0.583   0.559   0.581   0.587   0.567   0.557   0.527   0.516   0.537   0.511   0.538   0.505   0.473   0.487   0.463   0.473   0.488   0.493   0.502   0.474   0.480   0.486   0.468   0.486   0.462   0.441   0.443   0.429   0.414   0.414   0.405   0.419   0.445   0.438   0.439
    24.25    0.550   0.535   0.548   0.552   0.556   0.545   0.528   0.527   0.537   0.526   0.523   0.509   0.470   0.483   0.459   0.476   0.486   0.484   0.502   0.487   0.487   0.469   0.474   0.467   0.459   0.458   0.424   0.422   0.419   0.403   0.416   0.411   0.417   0.410   0.414
    19.60    0.545   0.537   0.520   0.527   0.507   0.531   0.537   0.547   0.523   0.494   0.516   0.498   0.471   0.492   0.484   0.481   0.484   0.495   0.482   0.494   0.483   0.476   0.471   0.456   0.468   0.432   0.429   0.401   0.430   0.399   0.413   0.399   0.396   0.434   0.439
    14.95    0.545   0.532   0.525   0.550   0.533   0.528   0.526   0.537   0.535   0.524   0.513   0.509   0.486   0.503   0.499   0.514   0.475   0.478   0.456   0.515   0.497   0.484   0.466   0.481   0.449   0.418   0.446   0.431   0.395   0.390   0.416   0.407   0.386   0.419   0.443
    10.30    0.531   0.504   0.550   0.533   0.556   0.523   0.537   0.510   0.508   0.536   0.530   0.538   0.562   0.531   0.499   0.489   0.477   0.493   0.506   0.543   0.522   0.498   0.505   0.493   0.470   0.451   0.481   0.481   0.476   0.434   0.457   0.420   0.394   0.383   0.421
     5.65    0.482   0.497   0.555   0.546   0.549   0.520   0.526   0.534   0.529   0.531   0.543   0.544   0.526   0.491   0.526   0.508   0.507   0.519   0.524   0.526   0.526   0.500   0.500   0.506   0.466   0.469   0.514   0.495   0.495   0.458   0.453   0.453   0.450   0.422   0.420
     1.00    0.513   0.519   0.525   0.548   0.526   0.546   0.528   0.556   0.551   0.570   0.542   0.574   0.552   0.493   0.505   0.511   0.511   0.534   0.524   0.513   0.532   0.498   0.525   0.525   0.508   0.512   0.548   0.516   0.504   0.491   0.463   0.469   0.488   0.493   0.475

   Height   Standard deviation at grid points for the w component:
   168.40    0.289   0.283   0.284   0.276   0.272   0.285   0.276   0.284   0.272   0.265   0.275   0.281   0.270   0.265   0.263   0.270   0.276   0.268   0.266   0.264   0.264   0.273   0.271   0.271   0.271   0.276   0.274   0.279   0.270   0.280   0.274   0.278   0.267   0.271   0.278
   163.75    0.281   0.277   0.280   0.279   0.283   0.276   0.278   0.279   0.273   0.269   0.268   0.282   0.273   0.266   0.263   0.274   0.262   0.265   0.264   0.263   0.265   0.267   0.277   0.275   0.277   0.282   0.277   0.271   0.274   0.275   0.288   0.276   0.267   0.276   0.287
   159.10    0.283   0.278   0.278   0.297   0.292   0.289   0.294   0.289   0.275   0.282   0.266   0.278   0.274   0.273   0.278   0.269   0.260   0.265   0.274   0.275   0.264   0.284   0.280   0.275   0.287   0.283   0.267   0.268   0.277   0.271   0.279   0.294   0.277   0.284   0.292
   154.45    0.293   0.288   0.286   0.304   0.297   0.292   0.286   0.282   0.291   0.282   0.274   0.269   0.281   0.277   0.275   0.269   0.266   0.265   0.274   0.271   0.273   0.277   0.284   0.279   0.282   0.282   0.268   0.262   0.275   0.274   0.285   0.283   0.282   0.277   0.282
   149.80    0.293   0.296   0.292   0.295   0.298   0.302   0.294   0.291   0.290   0.295   0.283   0.265   0.272   0.263   0.265   0.267   0.275   0.273   0.280   0.272   0.278   0.275   0.273   0.280   0.276   0.277   0.266   0.276   0.276   0.268   0.283   0.281   0.274   0.287   0.280
   145.15    0.297   0.282   0.294   0.305   0.311   0.303   0.309   0.301   0.299   0.295   0.283   0.276   0.278   0.280   0.262   0.265   0.265   0.262   0.273   0.274   0.276   0.262   0.273   0.281   0.278   0.281   0.286   0.288   0.272   0.267   0.276   0.285   0.283   0.293   0.286
   140.50    0.286   0.280   0.291   0.298   0.291   0.307   0.297   0.302   0.295   0.303   0.288   0.271   0.277   0.289   0.271   0.267   0.270   0.264   0.255   0.262   0.271   0.276   0.274   0.281   0.283   0.299   0.297   0.296   0.284   0.281   0.292   0.282   0.296   0.283   0.282
   135.85    0.288   0.291   0.298   0.298   0.297   0.300   0.301   0.301   0.298   0.299   0.283   0.273   0.285   0.286   0.286   0.282   0.269   0.266   0.260   0.254   0.270   0.282   0.281   0.283   0.291   0.298   0.309   0.303   0.285   0.292   0.299   0.303   0.300   0.287   0.282
   131.20    0.284   0.293   0.302   0.293   0.285   0.297   0.291   0.295   0.290   0.288   0.286   0.286   0.294   0.293   0.281   0.278   0.274   0.266   0.268   0.263   0.259   0.266   0.269   0.281   0.288   0.302   0.293   0.288   0.280   0.294   0.293   0.293   0.299   0.285   0.298
   126.55    0.288   0.278   0.295   0.295   0.294   0.300   0.299   0.292   0.278   0.293   0.294   0.294   0.296   0.289   0.280   0.275   0.271   0.272   0.269   0.261   0.265   0.262   0.265   0.282   0.286   0.297   0.301   0.283   0.295   0.298   0.295   0.287   0.291   0.297   0.305
   121.90    0.284   0.291   0.297   0.291   0.296   0.289   0.288   0.288   0.289   0.289   0.295   0.310   0.287   0.291   0.291   0.280   0.274   0.272   0.270   0.262   0.260   0.260   0.266   0.269   0.278   0.293   0.287   0.276   0.297   0.302   0.287   0.290   0.304   0.306   0.303
   117.25    0.290   0.297   0.296   0.296   0.300   0.299   0.288   0.300   0.295   0.306   0.306   0.312   0.308   0.298   0.288   0.277   0.271   0.271   0.270   0.264   0.258   0.257   0.262   0.264   0.277   0.277   0.277   0.279   0.296   0.299   0.287   0.291   0.292   0.281   0.294
   112.60    0.297   0.299   0.299   0.289   0.300   0.293   0.299   0.302   0.298   0.313   0.297   0.307   0.311   0.303   0.286   0.277   0.275   0.272   0.268   0.272   0.259   0.265   0.266   0.266   0.269   0.280   0.283   0.292   0.296   0.299   0.299   0.287   0.288   0.284   0.280
   107.95    0.311   0.313   0.299   0.296   0.293   0.312   0.300   0.292   0.297   0.293   0.298   0.302   0.304   0.313   0.294   0.286   0.285   0.272   0.277   0.274   0.283   0.277   0.271   0.277   0.272   0.272   0.278   0.278   0.277   0.296   0.307   0.294   0.268   0.269   0.280
   103.30    0.308   0.303   0.295   0.291   0.294   0.290   0.293   0.281   0.294   0.285   0.291   0.299   0.308   0.313   0.295   0.291   0.290   0.277   0.276   0.272   0.285   0.286   0.284   0.290   0.285   0.272   0.273   0.275   0.284   0.298   0.290   0.276   0.272   0.280   0.276
    98.65    0.308   0.298   0.293   0.292   0.283   0.287   0.284   0.284   0.292   0.288   0.293   0.304   0.308   0.310   0.315   0.306   0.297   0.285   0.279   0.280   0.286   0.295   0.291   0.285   0.280   0.288   0.276   0.282   0.291   0.286   0.288   0.281   0.287   0.282   0.277
    94.00    0.301   0.293   0.295   0.296   0.296   0.293   0.290   0.278   0.279   0.284   0.303   0.308   0.308   0.310   0.314   0.309   0.299   0.284   0.284   0.298   0.292   0.298   0.290   0.279   0.281   0.282   0.286   0.269   0.274   0.286   0.291   0.272   0.275   0.284   0.273
    89.35    0.300   0.293   0.296   0.290   0.308   0.297   0.284   0.283   0.275   0.288   0.301   0.309   0.305   0.308   0.307   0.306   0.293   0.287   0.299   0.291   0.287   0.284   0.278   0.291   0.289   0.281   0.280   0.274   0.291   0.293   0.280   0.272   0.281   0.285   0.282
    84.70    0.299   0.288   0.295   0.298   0.300   0.299   0.291   0.282   0.284   0.287   0.295   0.296   0.298   0.308   0.303   0.306   0.299   0.290   0.284   0.287   0.275   0.284   0.286   0.288   0.282   0.278   0.264   0.270   0.278   0.285   0.277   0.284   0.279   0.277   0.280
    80.05    0.289   0.291   0.286   0.291   0.295   0.297   0.301   0.303   0.295   0.299   0.298   0.294   0.291   0.300   0.294   0.285   0.299   0.285   0.285   0.282   0.277   0.279   0.288   0.284   0.281   0.283   0.273   0.280   0.278   0.274   0.279   0.282   0.275   0.273   0.276
    75.40    0.273   0.287   0.286   0.295   0.283   0.292   0.297   0.290   0.280   0.303   0.293   0.293   0.297   0.301   0.290   0.283   0.291   0.291   0.283   0.289   0.276   0.273   0.282   0.281   0.280   0.279   0.274   0.278   0.269   0.274   0.275   0.279   0.279   0.269   0.275
    70.75    0.282   0.289   0.296   0.297   0.288   0.290   0.295   0.285   0.285   0.292   0.288   0.278   0.282   0.288   0.293   0.292   0.284   0.280   0.277   0.272   0.276   0.278   0.279   0.272   0.280   0.279   0.273   0.268   0.263   0.258   0.273   0.267   0.271   0.269   0.272
    66.10    0.285   0.294   0.292   0.291   0.290   0.284   0.292   0.291   0.287   0.294   0.284   0.292   0.278   0.273   0.287   0.295   0.300   0.285   0.274   0.275   0.276   0.269   0.272   0.282   0.275   0.275   0.285   0.279   0.278   0.258   0.259   0.268   0.265   0.263   0.269
    61.45    0.279   0.284   0.290   0.285   0.287   0.274   0.280   0.287   0.284   0.284   0.275   0.281   0.286   0.286   0.287   0.294   0.291   0.296   0.284   0.279   0.274   0.270   0.270   0.279   0.285   0.279   0.280   0.277   0.269   0.256   0.264   0.262   0.270   0.276   0.273
    56.80    0.288   0.287   0.291   0.287   0.279   0.275   0.280   0.286   0.282   0.278   0.281   0.288   0.280   0.286   0.288   0.291   0.294   0.288   0.284   0.274   0.276   0.277   0.275   0.279   0.287   0.277   0.274   0.272   0.268   0.263   0.268   0.268   0.264   0.273   0.273
    52.15    0.278   0.279   0.277   0.273   0.283   0.287   0.285   0.281   0.273   0.273   0.279   0.269   0.278   0.297   0.292   0.284   0.291   0.288   0.290   0.279   0.278   0.281   0.270   0.276   0.293   0.290   0.285   0.276   0.269   0.269   0.274   0.274   0.275   0.285   0.281
    47.50    0.283   0.277   0.278   0.274   0.269   0.280   0.281   0.286   0.284   0.283   0.278   0.273   0.288   0.290   0.293   0.292   0.284   0.280   0.273   0.277   0.281   0.287   0.286   0.283   0.286   0.293   0.283   0.280   0.279   0.279   0.277   0.270   0.270   0.271   0.277
    42.85    0.290   0.286   0.290   0.280   0.278   0.275   0.290   0.294   0.286   0.291   0.287   0.291   0.279   0.294   0.302   0.288   0.288   0.283   0.277   0.281   0.291   0.288   0.291   0.302   0.286   0.290   0.286   0.277   0.275   0.289   0.277   0.271   0.264   0.275   0.288
    38.20    0.289   0.285   0.288   0.287   0.282   0.280   0.280   0.275   0.293   0.290   0.289   0.295   0.291   0.290   0.285   0.284   0.282   0.280   0.280   0.285   0.296   0.290   0.289   0.292   0.283   0.297   0.282   0.276   0.285   0.277   0.282   0.266   0.264   0.257   0.273
    33.55    0.288   0.291   0.287   0.278   0.279   0.283   0.290   0.285   0.287   0.293   0.287   0.290   0.291   0.288   0.282   0.285   0.282   0.282   0.291   0.287   0.289   0.284   0.282   0.293   0.285   0.276   0.287   0.282   0.277   0.268   0.272   0.273   0.255   0.266   0.267
    28.90    0.297   0.293   0.282   0.275   0.284   0.281   0.286   0.285   0.287   0.294   0.293   0.297   0.293   0.288   0.271   0.272   0.280   0.290   0.287   0.286   0.299   0.297   0.295   0.302   0.288   0.285   0.287   0.286   0.270   0.270   0.267   0.278   0.272   0.272   0.271
    24.25    0.286   0.282   0.285   0.276   0.280   0.288   0.282   0.295   0.289   0.290   0.283   0.287   0.293   0.275   0.274   0.272   0.274   0.279   0.291   0.283   0.291   0.292   0.295   0.290   0.285   0.280   0.282   0.286   0.272   0.277   0.275   0.283   0.286   0.286   0.277
    19.60    0.280   0.274   0.271   0.269   0.276   0.274   0.284   0.289   0.278   0.284   0.281   0.290   0.280   0.275   0.273   0.277   0.277   0.281   0.282   0.279   0.296   0.291   0.289   0.272   0.279   0.283   0.284   0.279   0.274   0.277   0.277   0.279   0.282   0.281   0.273
    14.95    0.279   0.274   0.276   0.282   0.278   0.274   0.286   0.290   0.288   0.278   0.282   0.285   0.280   0.284   0.288   0.275   0.280   0.275   0.283   0.277   0.284   0.293   0.290   0.285   0.269   0.273   0.278   0.274   0.267   0.272   0.278   0.271   0.287   0.286   0.277
    10.30    0.291   0.286   0.271   0.274   0.269   0.280   0.291   0.286   0.284   0.286   0.291   0.283   0.280   0.279   0.290   0.284   0.272   0.267   0.277   0.270   0.280   0.284   0.275   0.280   0.275   0.270   0.283   0.279   0.272   0.270   0.275   0.279   0.283   0.294   0.286
     5.65    0.282   0.286   0.287   0.282   0.277   0.280   0.284   0.291   0.282   0.288   0.289   0.290   0.288   0.284   0.274   0.273   0.277   0.274   0.273   0.276   0.273   0.280   0.281   0.282   0.281   0.274   0.280   0.280   0.276   0.276   0.277   0.288   0.295   0.289   0.290
     1.00    0.289   0.293   0.282   0.277   0.287   0.295   0.293   0.296   0.298   0.292   0.291   0.289   0.291   0.286   0.278   0.272   0.269   0.273   0.276   0.270   0.277   0.283   0.275   0.285   0.276   0.274   0.284   0.287   0.279   0.282   0.277   0.291   0.295   0.297   0.308

   Mean standard deviation across all grid points:
      u component:    0.509 m/s
      v component:    0.495 m/s
      w component:    0.283 m/s


U-component (X) statistics from the interpolated hub point:

   Mean =   9.9913 m/s
   TI   =   4.9970 %


Processing complete.  5713.7 CPU seconds used.
