
This summary file was generated by TurbSim (from OpenFAST-v3.5.3) on 20-Apr-2025 at 09:28:13.


Runtime Options:

 376932526  Random seed #1
    RANLUX  Type of random number generator
         F  Output binary HH turbulence parameters?
         F  Output formatted turbulence parameters?
         F  Output AeroDyn HH files?
         T  Output AeroDyn FF files?
         F  Output BLADED FF files?
         F  Output tower data?
         F  Output HAWC FF files?
         F  Output formatted FF files?
         T  Output coherent turbulence time step file?
 0 -  NONE  IEC turbulence models scaled to exact specified standard deviation


Turbine/Model Specifications:

        37  Vertical grid-point matrix dimension
        35  Horizontal grid-point matrix dimension
     0.250  Time step [seconds]
   900.000  Analysis time [seconds]
   900.000  Usable output time [seconds]
    89.350  Hub height [m]
   167.400  Grid height [m]
   158.100  Grid width [m]
     0.000  Vertical flow angle [degrees]
     0.000  Horizontal flow angle [degrees]


Meteorological Boundary Conditions:

    TIMESR  User-input time series spectral model
       N/A  IEC standard
       N/A  IEC turbulence characteristic
       N/A  IEC turbulence type
       N/A  IEC Extreme Turbulence Model (ETM) "c" parameter [m/s]
       PL   Wind profile type
    90.000  Reference height [m]
    10.000  Reference wind speed [m/s]
       N/A  Jet height [m]
     0.120  Power law exponent
     0.030  Surface roughness length [m]


Non-IEC Meteorological Boundary Conditions:

    45.000  Site latitude [degrees]
     0.050  Gradient Richardson number
     0.480  Friction or shear velocity [m/s]
       N/A  Mixing layer depth [m]
       N/A  Mean hub u'w' Reynolds stress
       N/A  Mean hub u'v' Reynolds stress
       N/A  Mean hub v'w' Reynolds stress


Spatial Coherence Models:

       IEC  u-component coherence model
       IEC  v-component coherence model
       IEC  w-component coherence model
(   12.000, 0.353E-03)  u-component coherence parameters
(   12.000, 0.353E-03)  v-component coherence parameters
(   12.000, 0.353E-03)  w-component coherence parameters
       N/A  Coherence exponent


Coherent Turbulence Scaling Parameters:

.\EventData
            Name of the path containing the coherent turbulence data files
       les  Type of coherent turbulence data files
     1.000  Disturbance scale (ratio of wave height to rotor diameter)
     0.500  Fractional location of tower centerline from right
     0.500  Fractional location of hub height from the bottom of the dataset
    30.000  Minimum start time for coherent structures [seconds]


Profiles from User-Defined Time-Series Input:

  Height   Wind Speed   Horizontal Angle   Vertical Angle
   (m)        (m/s)          (deg)              (deg)    
  ------   ----------   ----------------   --------------
   94.00      10.00          -0.63               -0.00


You have requested that the following file(s) be generated:

   /kfs3/scratch/agupta/Projects/RL_Incubator/FinalRuns_Veer/Seed4/./FFSim_Seed4/Cond00_v10.0_PL0.12_TI7.5/Case2_wdirp04/Seed_6/TurbSim/HighT13.bts (AeroDyn/TurbSim full-field wind file)


Turbulence Simulation Scaling Parameter Summary:

   Turbulence model used                            =  User-input time series
   Gradient Richardson number                       =    0.050
   Monin-Obukhov (M-O) z/L parameter                =    0.067
   Monin-Obukhov (M-O) length scale                 = 1340.250 m
   Mean wind speed at hub height                    =    9.991 m/s

   Wind profile type                                =  Power law
   Power law exponent                               =    0.120
   Mean shear across rotor disk                     =    0.019 (m/s)/m
   Assumed rotor diameter                           =  158.100 m
   Surface roughness length                         =    0.030 m

   Nyquist frequency of turbulent wind field        =    2.000 Hz

   Number of time steps in the FFT                  =     3600
   Number of time steps output                      =     3600
   Number of points simulated                       =     1296


Mean Flow Angles:

   Vertical   =   0.0 degrees
   Horizontal =   0.0 degrees

Mean Wind Speed Profile:

   Height    Wind Speed   Horizontal Angle  Vertical Angle  U-comp (X)   V-comp (Y)   W-comp (Z)
     (m)        (m/s)         (degrees)       (degrees)       (m/s)        (m/s)        (m/s)   
   ------    ----------   ----------------  --------------  ----------   ----------   ----------
    168.4       10.78            0.00            0.00         10.78         0.00         0.00
    163.7       10.74            0.00            0.00         10.74         0.00         0.00
    159.1       10.71            0.00            0.00         10.71         0.00         0.00
    154.4       10.67            0.00            0.00         10.67         0.00         0.00
    149.8       10.63            0.00            0.00         10.63         0.00         0.00
    145.1       10.59            0.00            0.00         10.59         0.00         0.00
    140.5       10.55            0.00            0.00         10.55         0.00         0.00
    135.8       10.51            0.00            0.00         10.51         0.00         0.00
    131.2       10.46            0.00            0.00         10.46         0.00         0.00
    126.5       10.42            0.00            0.00         10.42         0.00         0.00
    121.9       10.37            0.00            0.00         10.37         0.00         0.00
    117.2       10.32            0.00            0.00         10.32         0.00         0.00
    112.6       10.27            0.00            0.00         10.27         0.00         0.00
    107.9       10.22            0.00            0.00         10.22         0.00         0.00
    103.3       10.17            0.00            0.00         10.17         0.00         0.00
     98.6       10.11            0.00            0.00         10.11         0.00         0.00
     94.0       10.05            0.00            0.00         10.05         0.00         0.00
     89.3        9.99            0.00            0.00          9.99         0.00         0.00
     84.7        9.93            0.00            0.00          9.93         0.00         0.00
     80.0        9.86            0.00            0.00          9.86         0.00         0.00
     75.4        9.79            0.00            0.00          9.79         0.00         0.00
     70.7        9.72            0.00            0.00          9.72         0.00         0.00
     66.1        9.64            0.00            0.00          9.64         0.00         0.00
     61.4        9.55            0.00            0.00          9.55         0.00         0.00
     56.8        9.46            0.00            0.00          9.46         0.00         0.00
     52.1        9.37            0.00            0.00          9.37         0.00         0.00
     47.5        9.26            0.00            0.00          9.26         0.00         0.00
     42.8        9.15            0.00            0.00          9.15         0.00         0.00
     38.2        9.02            0.00            0.00          9.02         0.00         0.00
     33.5        8.88            0.00            0.00          8.88         0.00         0.00
     28.9        8.73            0.00            0.00          8.73         0.00         0.00
     24.2        8.54            0.00            0.00          8.54         0.00         0.00
     19.6        8.33            0.00            0.00          8.33         0.00         0.00
     14.9        8.06            0.00            0.00          8.06         0.00         0.00
     10.3        7.71            0.00            0.00          7.71         0.00         0.00
      5.6        7.17            0.00            0.00          7.17         0.00         0.00
      1.0        5.83            0.00            0.00          5.83         0.00         0.00


Harvested Random Seeds after Generation of the Random Numbers:

     65026800 K 1
            0 K 2


Hub-Height Simulated Turbulence Statistical Summary:

   Type of Wind        Min (m/s)   Mean (m/s)    Max (m/s)  Sigma (m/s)       TI (%)
   ----------------    ---------   ----------    ---------  -----------       ------
   Longitudinal (u)         8.01         9.99        12.04        0.636        6.365
   Lateral (v)             -1.95        -0.00         2.70        0.598        5.985
   Vertical (w)            -1.39         0.00         1.10        0.357        3.573
   U component              8.01         9.99        12.04        0.636        6.365
   V component             -1.95        -0.00         2.70        0.598        5.985
   W component             -1.39         0.00         1.10        0.357        3.573
   Horizontal (U&V)         8.04        10.01        12.04        0.630        6.298
   Total                    8.06        10.02        12.07        0.630        6.292

                       Min Reynolds     Mean Reynolds    Max Reynolds    Correlation
   Product             Stress (m/s)^2   Stress (m/s)^2   Stress (m/s)^2  Coefficient
   ----------------    --------------   --------------   --------------  -----------
   u'w'                     -1.799             0.010             1.845         0.045
   u'v'                     -3.437            -0.051             2.039        -0.135
   v'w'                     -1.137             0.023             1.139         0.106


   Friction Velocity (Ustar)  =      0.101 m/s
   Maximum Instantaneous TKE  =      4.039 (m/s)^2
   Maximum Instantaneous CTKE =      1.721 (m/s)^2


Grid Point Variance Summary:

   Y-coord  -79.05  -74.40  -69.75  -65.10  -60.45  -55.80  -51.15  -46.50  -41.85  -37.20  -32.55  -27.90  -23.25  -18.60  -13.95   -9.30   -4.65    0.00    4.65    9.30   13.95   18.60   23.25   27.90   32.55   37.20   41.85   46.50   51.15   55.80   60.45   65.10   69.75   74.40   79.05

   Height   Standard deviation at grid points for the u component:
   168.40    0.673   0.695   0.696   0.668   0.619   0.625   0.642   0.691   0.720   0.679   0.655   0.606   0.666   0.617   0.638   0.663   0.681   0.709   0.672   0.714   0.726   0.702   0.731   0.743   0.698   0.669   0.681   0.683   0.633   0.657   0.596   0.592   0.592   0.582   0.549
   163.75    0.660   0.667   0.681   0.703   0.687   0.665   0.658   0.655   0.678   0.672   0.618   0.670   0.685   0.635   0.617   0.633   0.644   0.667   0.698   0.692   0.703   0.687   0.732   0.708   0.690   0.659   0.690   0.665   0.668   0.607   0.599   0.591   0.591   0.543   0.575
   159.10    0.702   0.643   0.669   0.720   0.733   0.685   0.638   0.652   0.647   0.641   0.659   0.612   0.663   0.653   0.634   0.630   0.667   0.705   0.721   0.735   0.721   0.706   0.746   0.736   0.732   0.662   0.724   0.732   0.684   0.652   0.589   0.621   0.598   0.603   0.604
   154.45    0.635   0.657   0.657   0.692   0.674   0.679   0.631   0.613   0.594   0.602   0.601   0.612   0.654   0.672   0.622   0.646   0.656   0.676   0.713   0.707   0.731   0.730   0.757   0.722   0.751   0.718   0.677   0.738   0.699   0.683   0.643   0.594   0.615   0.639   0.636
   149.80    0.642   0.624   0.629   0.642   0.622   0.621   0.658   0.590   0.616   0.574   0.574   0.608   0.650   0.651   0.636   0.639   0.663   0.666   0.682   0.660   0.703   0.715   0.713   0.759   0.749   0.732   0.681   0.699   0.726   0.682   0.617   0.627   0.659   0.646   0.627
   145.15    0.646   0.627   0.633   0.631   0.619   0.652   0.606   0.608   0.605   0.580   0.556   0.587   0.630   0.620   0.652   0.649   0.654   0.646   0.655   0.651   0.685   0.688   0.737   0.756   0.813   0.763   0.700   0.706   0.684   0.661   0.633   0.579   0.643   0.639   0.630
   140.50    0.596   0.604   0.594   0.563   0.629   0.600   0.618   0.604   0.590   0.589   0.593   0.602   0.591   0.626   0.647   0.652   0.637   0.645   0.693   0.676   0.709   0.721   0.716   0.756   0.775   0.779   0.762   0.702   0.665   0.680   0.672   0.638   0.650   0.637   0.618
   135.85    0.616   0.594   0.548   0.529   0.604   0.603   0.642   0.629   0.612   0.611   0.618   0.582   0.602   0.606   0.616   0.631   0.612   0.635   0.689   0.704   0.719   0.770   0.742   0.730   0.794   0.785   0.763   0.700   0.699   0.678   0.699   0.689   0.689   0.639   0.602
   131.20    0.607   0.569   0.560   0.554   0.609   0.587   0.642   0.630   0.626   0.572   0.575   0.567   0.545   0.584   0.619   0.605   0.629   0.653   0.702   0.760   0.717   0.767   0.793   0.781   0.799   0.800   0.710   0.724   0.668   0.660   0.678   0.680   0.657   0.640   0.593
   126.55    0.609   0.571   0.555   0.563   0.600   0.640   0.628   0.620   0.597   0.590   0.594   0.575   0.566   0.581   0.587   0.599   0.655   0.642   0.701   0.705   0.732   0.782   0.763   0.782   0.762   0.755   0.747   0.734   0.703   0.671   0.625   0.661   0.676   0.661   0.637
   121.90    0.655   0.625   0.608   0.619   0.622   0.646   0.620   0.630   0.623   0.615   0.583   0.623   0.590   0.574   0.578   0.573   0.639   0.658   0.703   0.675   0.700   0.697   0.773   0.793   0.784   0.776   0.691   0.710   0.694   0.659   0.673   0.714   0.675   0.670   0.654
   117.25    0.657   0.662   0.616   0.626   0.641   0.693   0.661   0.652   0.636   0.606   0.655   0.616   0.606   0.596   0.589   0.589   0.635   0.661   0.693   0.733   0.688   0.671   0.754   0.743   0.756   0.795   0.689   0.682   0.723   0.729   0.703   0.741   0.751   0.749   0.737
   112.60    0.655   0.608   0.590   0.620   0.653   0.677   0.689   0.634   0.618   0.624   0.653   0.636   0.572   0.579   0.601   0.613   0.644   0.680   0.678   0.699   0.683   0.742   0.753   0.744   0.741   0.737   0.706   0.746   0.721   0.784   0.779   0.742   0.722   0.769   0.742
   107.95    0.629   0.598   0.613   0.650   0.638   0.646   0.666   0.661   0.615   0.670   0.656   0.658   0.587   0.585   0.613   0.613   0.669   0.665   0.649   0.685   0.742   0.714   0.750   0.717   0.727   0.725   0.737   0.750   0.782   0.782   0.737   0.734   0.709   0.721   0.676
   103.30    0.613   0.606   0.630   0.637   0.635   0.634   0.651   0.635   0.625   0.652   0.655   0.610   0.620   0.573   0.605   0.657   0.669   0.608   0.673   0.698   0.748   0.758   0.739   0.724   0.752   0.786   0.763   0.791   0.829   0.742   0.704   0.730   0.711   0.663   0.645
    98.65    0.616   0.583   0.608   0.639   0.663   0.681   0.669   0.673   0.662   0.637   0.677   0.603   0.629   0.590   0.620   0.634   0.639   0.639   0.679   0.687   0.730   0.781   0.779   0.716   0.743   0.767   0.795   0.814   0.768   0.765   0.745   0.681   0.668   0.634   0.620
    94.00    0.626   0.627   0.591   0.623   0.689   0.696   0.703   0.650   0.685   0.648   0.646   0.641   0.638   0.653   0.634   0.653   0.665   0.653   0.649   0.673   0.670   0.689   0.708   0.708   0.724   0.726   0.807   0.794   0.750   0.761   0.698   0.662   0.622   0.631   0.616
    89.35    0.594   0.625   0.610   0.671   0.687   0.676   0.668   0.687   0.634   0.619   0.597   0.642   0.621   0.644   0.649   0.676   0.662   0.636   0.622   0.632   0.604   0.674   0.695   0.721   0.740   0.780   0.791   0.757   0.756   0.760   0.723   0.682   0.694   0.687   0.654
    84.70    0.617   0.604   0.636   0.677   0.669   0.650   0.621   0.648   0.662   0.613   0.626   0.594   0.601   0.606   0.627   0.636   0.641   0.592   0.619   0.598   0.611   0.655   0.678   0.701   0.711   0.737   0.795   0.784   0.743   0.744   0.729   0.694   0.692   0.663   0.653
    80.05    0.643   0.657   0.664   0.680   0.621   0.644   0.654   0.660   0.675   0.676   0.640   0.660   0.588   0.604   0.664   0.675   0.648   0.598   0.604   0.627   0.655   0.678   0.633   0.705   0.697   0.729   0.763   0.772   0.773   0.755   0.719   0.678   0.630   0.629   0.641
    75.40    0.707   0.668   0.702   0.678   0.614   0.643   0.647   0.658   0.660   0.674   0.649   0.620   0.591   0.632   0.684   0.697   0.666   0.624   0.624   0.655   0.623   0.690   0.693   0.674   0.682   0.712   0.734   0.730   0.735   0.743   0.736   0.698   0.660   0.693   0.689
    70.75    0.790   0.784   0.703   0.648   0.623   0.638   0.704   0.656   0.638   0.679   0.643   0.601   0.643   0.637   0.650   0.687   0.723   0.682   0.712   0.717   0.719   0.693   0.687   0.657   0.671   0.715   0.716   0.710   0.717   0.739   0.728   0.694   0.709   0.711   0.697
    66.10    0.803   0.765   0.725   0.676   0.681   0.655   0.676   0.634   0.630   0.684   0.715   0.665   0.667   0.682   0.688   0.718   0.763   0.756   0.752   0.733   0.719   0.728   0.700   0.652   0.690   0.681   0.706   0.747   0.728   0.783   0.745   0.714   0.725   0.749   0.725
    61.45    0.787   0.773   0.748   0.754   0.720   0.676   0.675   0.696   0.660   0.690   0.700   0.699   0.719   0.708   0.740   0.742   0.744   0.776   0.789   0.815   0.760   0.740   0.706   0.687   0.659   0.643   0.676   0.741   0.739   0.682   0.767   0.762   0.761   0.765   0.713
    56.80    0.776   0.786   0.757   0.752   0.724   0.650   0.674   0.696   0.706   0.702   0.715   0.695   0.738   0.704   0.717   0.745   0.748   0.791   0.805   0.793   0.747   0.761   0.787   0.747   0.675   0.674   0.676   0.712   0.725   0.691   0.712   0.750   0.714   0.701   0.702
    52.15    0.741   0.767   0.788   0.755   0.783   0.701   0.718   0.723   0.734   0.731   0.742   0.784   0.760   0.707   0.690   0.726   0.732   0.770   0.764   0.735   0.680   0.754   0.757   0.735   0.687   0.657   0.655   0.677   0.692   0.640   0.708   0.693   0.681   0.691   0.713
    47.50    0.777   0.784   0.787   0.797   0.835   0.759   0.767   0.758   0.720   0.764   0.758   0.763   0.760   0.725   0.716   0.704   0.703   0.758   0.772   0.744   0.715   0.757   0.703   0.687   0.691   0.657   0.658   0.671   0.626   0.651   0.700   0.673   0.678   0.693   0.662
    42.85    0.780   0.835   0.851   0.792   0.811   0.788   0.800   0.798   0.756   0.725   0.731   0.738   0.732   0.768   0.714   0.734   0.693   0.766   0.800   0.771   0.770   0.707   0.696   0.682   0.683   0.666   0.661   0.680   0.657   0.631   0.703   0.696   0.690   0.648   0.625
    38.20    0.793   0.807   0.854   0.778   0.748   0.713   0.794   0.773   0.751   0.688   0.678   0.715   0.723   0.750   0.739   0.725   0.736   0.742   0.765   0.750   0.777   0.767   0.725   0.682   0.669   0.715   0.701   0.686   0.682   0.677   0.685   0.667   0.687   0.681   0.634
    33.55    0.771   0.814   0.813   0.782   0.744   0.757   0.805   0.783   0.711   0.708   0.697   0.716   0.692   0.729   0.751   0.731   0.746   0.761   0.734   0.738   0.758   0.755   0.704   0.638   0.690   0.674   0.701   0.684   0.673   0.661   0.665   0.657   0.642   0.642   0.594
    28.90    0.790   0.795   0.746   0.780   0.775   0.743   0.792   0.737   0.713   0.725   0.750   0.758   0.739   0.740   0.769   0.788   0.774   0.760   0.744   0.747   0.743   0.716   0.666   0.663   0.630   0.661   0.645   0.663   0.673   0.673   0.631   0.665   0.651   0.619   0.565
    24.25    0.762   0.740   0.751   0.763   0.735   0.764   0.799   0.799   0.758   0.728   0.709   0.759   0.759   0.768   0.734   0.714   0.742   0.727   0.722   0.753   0.704   0.714   0.623   0.661   0.651   0.669   0.642   0.649   0.668   0.706   0.636   0.687   0.670   0.660   0.615
    19.60    0.728   0.712   0.751   0.773   0.796   0.784   0.800   0.805   0.749   0.766   0.766   0.795   0.760   0.784   0.744   0.713   0.738   0.767   0.690   0.723   0.713   0.663   0.658   0.636   0.669   0.658   0.683   0.692   0.686   0.701   0.679   0.683   0.666   0.697   0.682
    14.95    0.710   0.689   0.750   0.762   0.813   0.787   0.836   0.769   0.729   0.730   0.777   0.789   0.808   0.790   0.739   0.695   0.696   0.718   0.719   0.726   0.748   0.671   0.628   0.623   0.643   0.641   0.692   0.655   0.645   0.685   0.678   0.610   0.639   0.656   0.657
    10.30    0.646   0.659   0.746   0.781   0.779   0.787   0.766   0.784   0.735   0.692   0.723   0.777   0.803   0.757   0.758   0.738   0.763   0.742   0.765   0.737   0.688   0.668   0.639   0.650   0.648   0.642   0.649   0.669   0.670   0.645   0.621   0.625   0.636   0.622   0.599
     5.65    0.669   0.680   0.727   0.745   0.727   0.739   0.738   0.778   0.763   0.721   0.736   0.780   0.783   0.795   0.747   0.757   0.748   0.752   0.732   0.679   0.692   0.652   0.641   0.638   0.637   0.673   0.663   0.662   0.627   0.633   0.626   0.607   0.611   0.663   0.620
     1.00    0.695   0.698   0.680   0.714   0.718   0.757   0.744   0.784   0.747   0.774   0.747   0.751   0.748   0.702   0.731   0.712   0.736   0.729   0.729   0.713   0.690   0.675   0.671   0.654   0.635   0.644   0.634   0.638   0.671   0.654   0.648   0.623   0.641   0.627   0.600

   Height   Standard deviation at grid points for the v component:
   168.40    0.599   0.584   0.616   0.609   0.623   0.647   0.655   0.646   0.588   0.559   0.550   0.533   0.545   0.513   0.518   0.556   0.525   0.530   0.548   0.522   0.515   0.507   0.522   0.539   0.520   0.519   0.516   0.521   0.536   0.531   0.517   0.539   0.537   0.560   0.546
   163.75    0.582   0.599   0.579   0.595   0.608   0.610   0.641   0.619   0.608   0.569   0.563   0.556   0.538   0.558   0.572   0.533   0.519   0.531   0.529   0.544   0.513   0.501   0.487   0.518   0.505   0.526   0.508   0.524   0.521   0.522   0.511   0.520   0.564   0.557   0.538
   159.10    0.557   0.588   0.561   0.552   0.588   0.584   0.585   0.599   0.594   0.567   0.543   0.543   0.558   0.545   0.549   0.545   0.496   0.507   0.528   0.542   0.525   0.500   0.488   0.518   0.529   0.519   0.519   0.524   0.520   0.521   0.524   0.524   0.566   0.548   0.535
   154.45    0.554   0.546   0.540   0.586   0.567   0.559   0.550   0.589   0.581   0.570   0.551   0.504   0.560   0.589   0.546   0.542   0.518   0.500   0.500   0.518   0.517   0.505   0.513   0.497   0.541   0.546   0.536   0.546   0.535   0.539   0.545   0.530   0.554   0.517   0.545
   149.80    0.543   0.537   0.563   0.577   0.544   0.578   0.566   0.576   0.566   0.545   0.551   0.535   0.555   0.568   0.557   0.580   0.546   0.500   0.507   0.522   0.524   0.513   0.503   0.554   0.557   0.556   0.569   0.567   0.579   0.557   0.575   0.531   0.528   0.531   0.525
   145.15    0.574   0.574   0.575   0.553   0.540   0.561   0.565   0.564   0.575   0.562   0.571   0.579   0.565   0.537   0.541   0.548   0.543   0.523   0.517   0.531   0.525   0.537   0.548   0.564   0.561   0.567   0.568   0.538   0.577   0.590   0.572   0.553   0.542   0.541   0.567
   140.50    0.603   0.576   0.610   0.564   0.535   0.549   0.569   0.574   0.622   0.591   0.578   0.557   0.579   0.537   0.549   0.552   0.524   0.532   0.499   0.520   0.564   0.575   0.546   0.573   0.561   0.584   0.571   0.583   0.580   0.588   0.587   0.560   0.572   0.585   0.537
   135.85    0.626   0.628   0.612   0.588   0.553   0.593   0.554   0.595   0.620   0.614   0.605   0.574   0.553   0.559   0.552   0.558   0.551   0.559   0.532   0.567   0.560   0.587   0.600   0.580   0.572   0.619   0.580   0.601   0.586   0.606   0.601   0.580   0.597   0.596   0.567
   131.20    0.579   0.584   0.617   0.581   0.586   0.616   0.585   0.604   0.615   0.608   0.586   0.566   0.571   0.557   0.578   0.582   0.579   0.570   0.554   0.556   0.551   0.585   0.607   0.605   0.605   0.613   0.613   0.591   0.606   0.619   0.615   0.591   0.591   0.562   0.543
   126.55    0.556   0.600   0.601   0.587   0.616   0.614   0.580   0.570   0.591   0.609   0.581   0.551   0.573   0.603   0.595   0.584   0.580   0.567   0.531   0.532   0.537   0.549   0.586   0.603   0.584   0.590   0.614   0.607   0.597   0.577   0.576   0.577   0.573   0.542   0.502
   121.90    0.592   0.594   0.577   0.599   0.619   0.606   0.613   0.585   0.555   0.577   0.579   0.549   0.593   0.601   0.603   0.579   0.581   0.572   0.543   0.546   0.530   0.565   0.588   0.587   0.565   0.587   0.587   0.587   0.540   0.556   0.552   0.542   0.554   0.524   0.524
   117.25    0.613   0.587   0.573   0.546   0.585   0.590   0.580   0.556   0.520   0.552   0.540   0.569   0.594   0.609   0.629   0.581   0.612   0.568   0.549   0.547   0.536   0.556   0.567   0.587   0.591   0.585   0.630   0.590   0.563   0.540   0.528   0.549   0.520   0.509   0.531
   112.60    0.594   0.587   0.592   0.596   0.581   0.579   0.558   0.546   0.503   0.505   0.535   0.527   0.564   0.618   0.626   0.615   0.616   0.579   0.570   0.576   0.538   0.554   0.569   0.552   0.563   0.587   0.611   0.598   0.589   0.554   0.513   0.522   0.502   0.522   0.513
   107.95    0.643   0.618   0.599   0.619   0.589   0.593   0.585   0.526   0.514   0.507   0.531   0.579   0.597   0.593   0.629   0.607   0.572   0.567   0.563   0.546   0.519   0.526   0.527   0.500   0.511   0.555   0.579   0.574   0.565   0.543   0.533   0.493   0.492   0.509   0.495
   103.30    0.610   0.625   0.602   0.606   0.598   0.584   0.544   0.526   0.489   0.525   0.551   0.591   0.613   0.633   0.633   0.603   0.610   0.584   0.567   0.545   0.540   0.508   0.561   0.556   0.523   0.528   0.573   0.570   0.544   0.515   0.501   0.540   0.511   0.504   0.565
    98.65    0.606   0.614   0.600   0.621   0.584   0.558   0.545   0.524   0.487   0.514   0.546   0.601   0.602   0.635   0.629   0.621   0.606   0.604   0.569   0.568   0.539   0.532   0.554   0.534   0.506   0.518   0.531   0.530   0.540   0.539   0.535   0.555   0.561   0.557   0.572
    94.00    0.592   0.590   0.576   0.579   0.564   0.564   0.543   0.514   0.522   0.523   0.539   0.569   0.586   0.614   0.620   0.621   0.636   0.621   0.578   0.576   0.574   0.557   0.554   0.535   0.492   0.507   0.497   0.508   0.543   0.555   0.547   0.562   0.553   0.543   0.585
    89.35    0.605   0.555   0.537   0.572   0.549   0.575   0.552   0.573   0.537   0.555   0.543   0.550   0.596   0.606   0.627   0.600   0.618   0.598   0.561   0.569   0.578   0.531   0.555   0.564   0.531   0.492   0.495   0.526   0.518   0.570   0.584   0.552   0.544   0.551   0.574
    84.70    0.601   0.569   0.561   0.536   0.538   0.588   0.627   0.606   0.559   0.567   0.566   0.596   0.611   0.614   0.620   0.628   0.624   0.611   0.560   0.547   0.580   0.536   0.548   0.579   0.548   0.518   0.508   0.518   0.543   0.542   0.538   0.547   0.559   0.580   0.576
    80.05    0.624   0.632   0.606   0.582   0.578   0.611   0.626   0.641   0.624   0.635   0.595   0.593   0.593   0.609   0.639   0.625   0.610   0.599   0.574   0.584   0.592   0.580   0.579   0.587   0.574   0.536   0.503   0.502   0.510   0.546   0.526   0.543   0.541   0.573   0.574
    75.40    0.584   0.595   0.623   0.606   0.627   0.623   0.633   0.651   0.656   0.627   0.607   0.616   0.621   0.647   0.632   0.638   0.627   0.605   0.580   0.585   0.597   0.592   0.575   0.568   0.567   0.534   0.535   0.541   0.530   0.539   0.520   0.538   0.540   0.552   0.553
    70.75    0.619   0.619   0.645   0.618   0.651   0.620   0.602   0.593   0.629   0.601   0.596   0.602   0.648   0.665   0.643   0.639   0.567   0.600   0.611   0.604   0.587   0.581   0.581   0.577   0.550   0.542   0.557   0.559   0.565   0.564   0.541   0.560   0.521   0.507   0.518
    66.10    0.642   0.639   0.625   0.640   0.632   0.602   0.575   0.601   0.626   0.599   0.619   0.668   0.642   0.656   0.642   0.624   0.558   0.574   0.592   0.618   0.588   0.599   0.561   0.537   0.548   0.552   0.547   0.515   0.532   0.540   0.550   0.539   0.510   0.510   0.510
    61.45    0.624   0.600   0.621   0.600   0.612   0.604   0.593   0.573   0.607   0.618   0.633   0.653   0.648   0.596   0.626   0.619   0.606   0.584   0.590   0.628   0.613   0.629   0.612   0.543   0.574   0.550   0.534   0.536   0.515   0.536   0.543   0.516   0.502   0.522   0.520
    56.80    0.582   0.578   0.605   0.581   0.577   0.602   0.590   0.583   0.567   0.566   0.606   0.630   0.606   0.626   0.621   0.617   0.579   0.608   0.590   0.588   0.611   0.591   0.581   0.602   0.556   0.532   0.520   0.511   0.544   0.563   0.525   0.505   0.482   0.500   0.521
    52.15    0.563   0.570   0.551   0.564   0.581   0.596   0.595   0.575   0.561   0.555   0.598   0.626   0.632   0.625   0.647   0.630   0.611   0.606   0.618   0.608   0.630   0.595   0.565   0.545   0.554   0.537   0.529   0.559   0.559   0.566   0.547   0.519   0.501   0.496   0.503
    47.50    0.557   0.565   0.551   0.544   0.565   0.579   0.578   0.559   0.536   0.571   0.575   0.599   0.599   0.586   0.597   0.645   0.639   0.620   0.647   0.629   0.648   0.625   0.580   0.556   0.550   0.544   0.531   0.556   0.537   0.575   0.545   0.516   0.508   0.508   0.470
    42.85    0.552   0.567   0.553   0.549   0.569   0.517   0.495   0.521   0.530   0.553   0.571   0.580   0.598   0.596   0.585   0.604   0.643   0.651   0.640   0.655   0.647   0.629   0.604   0.557   0.544   0.541   0.557   0.573   0.549   0.569   0.520   0.490   0.492   0.498   0.478
    38.20    0.569   0.546   0.525   0.544   0.524   0.504   0.520   0.519   0.541   0.568   0.582   0.555   0.600   0.593   0.592   0.600   0.608   0.635   0.633   0.658   0.657   0.637   0.620   0.590   0.557   0.552   0.541   0.543   0.538   0.538   0.527   0.516   0.504   0.491   0.464
    33.55    0.556   0.526   0.527   0.560   0.525   0.522   0.521   0.516   0.525   0.532   0.559   0.557   0.573   0.578   0.585   0.604   0.609   0.630   0.656   0.659   0.641   0.648   0.615   0.600   0.604   0.562   0.544   0.562   0.527   0.548   0.534   0.555   0.525   0.527   0.502
    28.90    0.571   0.582   0.559   0.537   0.537   0.528   0.502   0.527   0.509   0.520   0.566   0.539   0.570   0.575   0.578   0.594   0.571   0.588   0.608   0.626   0.586   0.601   0.608   0.589   0.572   0.559   0.562   0.537   0.515   0.558   0.558   0.538   0.559   0.554   0.552
    24.25    0.644   0.593   0.562   0.515   0.510   0.524   0.506   0.505   0.565   0.567   0.538   0.573   0.601   0.598   0.584   0.602   0.588   0.574   0.582   0.573   0.583   0.621   0.592   0.609   0.582   0.565   0.549   0.518   0.529   0.552   0.567   0.577   0.581   0.560   0.575
    19.60    0.630   0.586   0.568   0.553   0.546   0.549   0.542   0.553   0.571   0.554   0.569   0.577   0.581   0.588   0.574   0.585   0.593   0.589   0.594   0.565   0.584   0.604   0.607   0.585   0.579   0.530   0.564   0.526   0.542   0.562   0.544   0.571   0.591   0.574   0.585
    14.95    0.614   0.570   0.564   0.599   0.572   0.576   0.574   0.560   0.560   0.569   0.606   0.563   0.548   0.588   0.596   0.575   0.593   0.597   0.606   0.650   0.591   0.606   0.566   0.533   0.546   0.564   0.595   0.594   0.570   0.566   0.566   0.601   0.579   0.571   0.585
    10.30    0.601   0.593   0.620   0.596   0.558   0.566   0.569   0.570   0.547   0.580   0.574   0.575   0.549   0.557   0.612   0.600   0.594   0.590   0.596   0.625   0.631   0.600   0.569   0.547   0.544   0.572   0.579   0.580   0.533   0.556   0.573   0.603   0.600   0.590   0.608
     5.65    0.605   0.637   0.629   0.615   0.613   0.613   0.590   0.580   0.591   0.565   0.559   0.571   0.570   0.573   0.587   0.569   0.595   0.599   0.607   0.598   0.625   0.640   0.618   0.567   0.566   0.567   0.573   0.554   0.531   0.546   0.567   0.558   0.597   0.596   0.635
     1.00    0.602   0.621   0.607   0.613   0.631   0.635   0.632   0.609   0.578   0.614   0.575   0.559   0.586   0.583   0.556   0.580   0.573   0.598   0.641   0.611   0.656   0.626   0.607   0.571   0.551   0.554   0.579   0.548   0.521   0.517   0.538   0.555   0.550   0.582   0.601

   Height   Standard deviation at grid points for the w component:
   168.40    0.345   0.346   0.332   0.338   0.344   0.345   0.344   0.341   0.353   0.339   0.347   0.334   0.333   0.344   0.337   0.343   0.353   0.361   0.364   0.364   0.364   0.366   0.342   0.334   0.338   0.339   0.334   0.335   0.334   0.337   0.324   0.321   0.332   0.332   0.339
   163.75    0.358   0.348   0.330   0.330   0.336   0.343   0.345   0.346   0.351   0.346   0.341   0.339   0.338   0.332   0.335   0.346   0.356   0.366   0.373   0.370   0.361   0.348   0.356   0.353   0.351   0.340   0.330   0.317   0.319   0.337   0.336   0.322   0.326   0.346   0.356
   159.10    0.354   0.354   0.341   0.329   0.334   0.339   0.348   0.344   0.352   0.350   0.346   0.343   0.318   0.332   0.338   0.339   0.351   0.358   0.367   0.361   0.359   0.358   0.363   0.359   0.359   0.348   0.339   0.338   0.337   0.348   0.355   0.345   0.326   0.333   0.345
   154.45    0.341   0.342   0.344   0.338   0.357   0.344   0.339   0.340   0.347   0.345   0.342   0.346   0.333   0.330   0.341   0.340   0.352   0.369   0.363   0.361   0.359   0.353   0.350   0.346   0.350   0.331   0.315   0.322   0.341   0.341   0.345   0.344   0.336   0.329   0.342
   149.80    0.341   0.351   0.358   0.341   0.355   0.359   0.343   0.341   0.352   0.347   0.335   0.328   0.333   0.345   0.337   0.347   0.354   0.353   0.347   0.344   0.353   0.361   0.353   0.355   0.334   0.331   0.320   0.326   0.328   0.338   0.338   0.333   0.322   0.331   0.344
   145.15    0.334   0.343   0.343   0.353   0.349   0.358   0.348   0.340   0.339   0.335   0.332   0.334   0.337   0.338   0.344   0.336   0.340   0.352   0.343   0.343   0.347   0.361   0.359   0.365   0.351   0.347   0.349   0.342   0.334   0.344   0.333   0.322   0.324   0.337   0.334
   140.50    0.338   0.349   0.342   0.351   0.362   0.357   0.356   0.355   0.341   0.344   0.330   0.335   0.346   0.345   0.345   0.340   0.334   0.351   0.346   0.340   0.346   0.347   0.349   0.360   0.364   0.363   0.364   0.346   0.351   0.343   0.343   0.337   0.327   0.326   0.329
   135.85    0.330   0.340   0.348   0.346   0.344   0.338   0.351   0.352   0.342   0.337   0.343   0.358   0.361   0.361   0.358   0.347   0.339   0.343   0.351   0.359   0.339   0.354   0.361   0.362   0.368   0.373   0.366   0.369   0.368   0.343   0.347   0.329   0.331   0.322   0.327
   131.20    0.331   0.350   0.360   0.343   0.346   0.351   0.347   0.354   0.342   0.349   0.353   0.358   0.358   0.357   0.364   0.346   0.352   0.345   0.353   0.350   0.359   0.355   0.362   0.371   0.369   0.361   0.364   0.369   0.363   0.356   0.346   0.331   0.340   0.333   0.344
   126.55    0.343   0.340   0.344   0.344   0.348   0.367   0.365   0.362   0.350   0.370   0.366   0.364   0.366   0.359   0.370   0.363   0.363   0.368   0.356   0.358   0.363   0.363   0.367   0.358   0.351   0.355   0.378   0.360   0.351   0.350   0.347   0.341   0.332   0.340   0.349
   121.90    0.341   0.339   0.343   0.358   0.373   0.361   0.354   0.351   0.354   0.356   0.358   0.350   0.366   0.369   0.379   0.384   0.386   0.383   0.372   0.360   0.373   0.362   0.362   0.369   0.337   0.354   0.366   0.361   0.343   0.339   0.358   0.347   0.349   0.353   0.355
   117.25    0.345   0.340   0.341   0.362   0.361   0.356   0.349   0.347   0.350   0.361   0.358   0.350   0.364   0.374   0.368   0.368   0.381   0.386   0.378   0.375   0.370   0.360   0.364   0.363   0.344   0.358   0.355   0.352   0.356   0.356   0.351   0.343   0.360   0.360   0.366
   112.60    0.338   0.344   0.364   0.363   0.361   0.356   0.346   0.348   0.360   0.343   0.363   0.356   0.368   0.355   0.360   0.353   0.367   0.367   0.376   0.374   0.363   0.360   0.374   0.365   0.356   0.352   0.344   0.347   0.343   0.361   0.344   0.348   0.351   0.363   0.361
   107.95    0.347   0.353   0.371   0.374   0.362   0.361   0.352   0.357   0.369   0.354   0.359   0.359   0.362   0.370   0.366   0.355   0.354   0.376   0.374   0.356   0.352   0.352   0.369   0.365   0.357   0.363   0.354   0.347   0.352   0.357   0.347   0.352   0.341   0.356   0.353
   103.30    0.342   0.358   0.366   0.349   0.356   0.358   0.352   0.355   0.365   0.347   0.342   0.354   0.355   0.359   0.363   0.366   0.370   0.365   0.374   0.364   0.351   0.355   0.368   0.358   0.348   0.356   0.350   0.361   0.358   0.355   0.348   0.356   0.361   0.356   0.363
    98.65    0.346   0.351   0.351   0.362   0.349   0.355   0.357   0.349   0.360   0.356   0.350   0.352   0.366   0.366   0.359   0.360   0.367   0.363   0.371   0.349   0.355   0.355   0.366   0.364   0.358   0.352   0.355   0.354   0.362   0.357   0.351   0.348   0.361   0.353   0.363
    94.00    0.347   0.344   0.335   0.334   0.345   0.348   0.364   0.367   0.350   0.361   0.354   0.359   0.371   0.380   0.357   0.361   0.358   0.357   0.352   0.349   0.359   0.358   0.357   0.369   0.349   0.342   0.347   0.356   0.350   0.366   0.364   0.356   0.352   0.348   0.354
    89.35    0.349   0.360   0.350   0.334   0.335   0.347   0.356   0.358   0.356   0.361   0.356   0.366   0.362   0.375   0.365   0.368   0.370   0.357   0.343   0.355   0.350   0.349   0.357   0.358   0.349   0.356   0.351   0.351   0.351   0.370   0.371   0.356   0.334   0.338   0.354
    84.70    0.371   0.360   0.355   0.365   0.352   0.353   0.347   0.366   0.362   0.359   0.367   0.368   0.355   0.361   0.374   0.373   0.367   0.350   0.352   0.354   0.351   0.342   0.360   0.348   0.348   0.351   0.357   0.355   0.360   0.368   0.358   0.351   0.351   0.338   0.350
    80.05    0.360   0.356   0.358   0.366   0.365   0.345   0.346   0.353   0.364   0.360   0.362   0.374   0.352   0.352   0.367   0.364   0.377   0.349   0.356   0.365   0.362   0.368   0.368   0.384   0.369   0.370   0.355   0.351   0.350   0.361   0.358   0.348   0.338   0.346   0.345
    75.40    0.356   0.364   0.362   0.363   0.362   0.346   0.354   0.354   0.353   0.363   0.377   0.372   0.356   0.347   0.361   0.366   0.361   0.351   0.354   0.357   0.374   0.372   0.364   0.366   0.376   0.352   0.348   0.357   0.365   0.348   0.359   0.353   0.348   0.331   0.342
    70.75    0.351   0.362   0.357   0.360   0.358   0.359   0.347   0.357   0.351   0.357   0.371   0.362   0.356   0.345   0.351   0.361   0.357   0.353   0.352   0.353   0.365   0.368   0.364   0.367   0.359   0.354   0.354   0.359   0.365   0.356   0.345   0.345   0.347   0.355   0.347
    66.10    0.349   0.359   0.368   0.357   0.343   0.351   0.350   0.352   0.364   0.357   0.361   0.363   0.344   0.341   0.348   0.349   0.356   0.347   0.368   0.356   0.366   0.386   0.387   0.375   0.349   0.358   0.367   0.366   0.368   0.355   0.356   0.355   0.343   0.360   0.360
    61.45    0.353   0.349   0.363   0.368   0.358   0.375   0.353   0.366   0.359   0.352   0.354   0.341   0.352   0.346   0.343   0.346   0.367   0.367   0.364   0.364   0.375   0.368   0.373   0.369   0.353   0.358   0.374   0.359   0.374   0.367   0.351   0.351   0.343   0.351   0.348
    56.80    0.363   0.366   0.365   0.354   0.368   0.371   0.362   0.364   0.357   0.353   0.339   0.338   0.358   0.337   0.342   0.341   0.360   0.378   0.373   0.356   0.381   0.381   0.356   0.358   0.370   0.373   0.370   0.366   0.363   0.367   0.361   0.346   0.357   0.361   0.344
    52.15    0.357   0.361   0.369   0.361   0.373   0.362   0.355   0.348   0.345   0.350   0.342   0.345   0.343   0.342   0.342   0.348   0.349   0.359   0.362   0.367   0.372   0.367   0.359   0.361   0.372   0.390   0.372   0.383   0.369   0.362   0.365   0.358   0.350   0.353   0.348
    47.50    0.362   0.351   0.360   0.364   0.362   0.361   0.371   0.339   0.332   0.359   0.353   0.351   0.345   0.338   0.335   0.345   0.347   0.333   0.343   0.347   0.362   0.358   0.359   0.373   0.374   0.370   0.372   0.359   0.366   0.360   0.369   0.358   0.358   0.355   0.353
    42.85    0.346   0.351   0.368   0.365   0.358   0.350   0.355   0.342   0.333   0.338   0.349   0.349   0.341   0.343   0.335   0.340   0.330   0.332   0.339   0.351   0.358   0.361   0.363   0.368   0.360   0.358   0.361   0.366   0.364   0.358   0.356   0.355   0.352   0.356   0.350
    38.20    0.361   0.350   0.373   0.358   0.351   0.342   0.348   0.343   0.346   0.335   0.348   0.339   0.348   0.349   0.357   0.346   0.344   0.337   0.334   0.343   0.359   0.357   0.366   0.371   0.360   0.366   0.361   0.356   0.351   0.355   0.354   0.339   0.343   0.353   0.343
    33.55    0.361   0.367   0.369   0.349   0.345   0.344   0.332   0.333   0.349   0.352   0.345   0.345   0.347   0.345   0.343   0.360   0.358   0.358   0.339   0.351   0.349   0.368   0.365   0.363   0.366   0.374   0.363   0.369   0.361   0.341   0.333   0.343   0.334   0.345   0.341
    28.90    0.379   0.358   0.367   0.350   0.339   0.341   0.350   0.355   0.356   0.336   0.338   0.346   0.346   0.343   0.348   0.358   0.359   0.365   0.351   0.338   0.346   0.362   0.364   0.365   0.359   0.373   0.364   0.359   0.359   0.336   0.338   0.318   0.330   0.336   0.329
    24.25    0.368   0.356   0.348   0.343   0.344   0.346   0.360   0.360   0.353   0.339   0.345   0.341   0.345   0.355   0.358   0.352   0.356   0.357   0.350   0.338   0.343   0.353   0.364   0.356   0.369   0.365   0.383   0.370   0.368   0.343   0.335   0.337   0.337   0.342   0.345
    19.60    0.346   0.352   0.341   0.350   0.346   0.348   0.351   0.355   0.347   0.334   0.340   0.342   0.345   0.342   0.332   0.347   0.346   0.358   0.356   0.347   0.350   0.359   0.360   0.353   0.367   0.376   0.373   0.372   0.372   0.359   0.355   0.344   0.345   0.351   0.353
    14.95    0.342   0.344   0.341   0.339   0.346   0.338   0.337   0.332   0.345   0.336   0.346   0.345   0.345   0.337   0.344   0.345   0.334   0.343   0.358   0.347   0.343   0.352   0.351   0.363   0.364   0.352   0.372   0.372   0.371   0.366   0.350   0.351   0.344   0.350   0.353
    10.30    0.359   0.354   0.348   0.338   0.360   0.352   0.346   0.337   0.333   0.349   0.365   0.348   0.343   0.348   0.353   0.359   0.350   0.345   0.343   0.348   0.355   0.362   0.350   0.361   0.372   0.350   0.358   0.375   0.368   0.356   0.348   0.342   0.346   0.363   0.358
     5.65    0.367   0.353   0.363   0.342   0.347   0.347   0.336   0.333   0.336   0.334   0.351   0.346   0.343   0.345   0.344   0.355   0.352   0.358   0.345   0.352   0.347   0.353   0.360   0.356   0.358   0.360   0.367   0.353   0.349   0.354   0.348   0.354   0.359   0.355   0.353
     1.00    0.355   0.356   0.353   0.356   0.345   0.348   0.344   0.343   0.327   0.349   0.348   0.351   0.336   0.341   0.355   0.363   0.354   0.351   0.357   0.349   0.357   0.356   0.364   0.354   0.355   0.371   0.354   0.360   0.356   0.349   0.356   0.350   0.352   0.364   0.360

   Mean standard deviation across all grid points:
      u component:    0.687 m/s
      v component:    0.570 m/s
      w component:    0.353 m/s


U-component (X) statistics from the interpolated hub point:

   Mean =   9.9913 m/s
   TI   =   6.3649 %


Processing complete.  6064.7 CPU seconds used.
