
This summary file was generated by TurbSim (from OpenFAST-v3.5.3) on 19-Apr-2025 at 22:35:08.


Runtime Options:

1682697194  Random seed #1
    RANLUX  Type of random number generator
         F  Output binary HH turbulence parameters?
         F  Output formatted turbulence parameters?
         F  Output AeroDyn HH files?
         T  Output AeroDyn FF files?
         F  Output BLADED FF files?
         F  Output tower data?
         F  Output HAWC FF files?
         F  Output formatted FF files?
         T  Output coherent turbulence time step file?
 0 -  NONE  IEC turbulence models scaled to exact specified standard deviation


Turbine/Model Specifications:

        39  Vertical grid-point matrix dimension
       193  Horizontal grid-point matrix dimension
     0.250  Time step [seconds]
   900.000  Analysis time [seconds]
   900.000  Usable output time [seconds]
   177.700  Hub height [m]
   353.400  Grid height [m]
  1785.600  Grid width [m]
     0.000  Vertical flow angle [degrees]
     0.000  Horizontal flow angle [degrees]


Meteorological Boundary Conditions:

    IECKAI  IEC Kaimal spectral model
         1  IEC standard: IEC 61400-1 Ed. 3: 2005
     7.500  Percent turbulence intensity, IEC 61400-1 Ed. 3: 2005
       NTM  IEC Normal Turbulence Model
       N/A  IEC Extreme Turbulence Model (ETM) "c" parameter [m/s]
       USR  Wind profile type
    90.000  Reference height [m]
       N/A  Reference wind speed [m/s]
       N/A  Jet height [m]
       N/A  Power law exponent
     0.030  Surface roughness length [m]


Non-IEC Meteorological Boundary Conditions:

       N/A  Site latitude [degrees]
       N/A  Gradient Richardson number
       N/A  Friction or shear velocity [m/s]
       N/A  Mixing layer depth [m]
       N/A  Mean hub u'w' Reynolds stress
       N/A  Mean hub u'v' Reynolds stress
       N/A  Mean hub v'w' Reynolds stress


Spatial Coherence Models:

       IEC  u-component coherence model
       IEC  v-component coherence model
       IEC  w-component coherence model
(   12.000, 0.353E-03)  u-component coherence parameters
(   12.000, 0.353E-03)  v-component coherence parameters
(   12.000, 0.353E-03)  w-component coherence parameters
       N/A  Coherence exponent


User-Defined Profiles:

  Height   Wind Speed   Horizontal Angle
   (m)        (m/s)          (deg)      
  ------   ----------   ----------------
  353.40      10.00         318.19
  334.80      10.00         321.14
  316.20      10.00         324.10
  297.60      10.00         327.05
  279.00      10.00         330.00
  260.40      10.00         332.95
  241.80      10.00         335.90
  223.20      10.00         338.86
  204.60      10.00         341.81
  186.00      10.00         344.76
  167.40      10.00         347.71
  148.80      10.00         350.67
  130.20      10.00         353.62
  111.60      10.00         356.57
   93.00      10.00         359.52
   74.40      10.00           2.48
   55.80      10.00           5.43
   37.20      10.00           8.38
   18.60      10.00          11.33
    0.00      10.00          14.29


You have requested that the following file(s) be generated:

   /kfs3/scratch/agupta/Projects/RL_Incubator/FinalRuns_Veer/Seed4/./FFSim_Seed4/Cond00_v10.0_PL0.12_TI7.5/Seed_5/Low.bts (AeroDyn/TurbSim full-field wind file)


Turbulence Simulation Scaling Parameter Summary:

   Turbulence model used                            =  IEC Kaimal
   Turbulence characteristic                        =  User-specified
   IEC standard                                     =  IEC 61400-1 Ed. 3: 2005
   Mean wind speed at hub height                    =   10.000 m/s
   Characteristic value of standard deviation       =    0.750 m/s
   Turbulence scale                                 =   42.000 m
   u-component integral scale                       =  340.200 m
   Coherency scale                                  =  340.200 m
   Characteristic value of hub turbulence intensity =    7.500%
   Gradient Richardson number                       =    0.000

   Wind profile type                                =  Linear interpolation of user-defined profile
   Equivalent power law exponent (upper rotor disk) =    0.000
   Mean shear across rotor disk                     =    0.000 (m/s)/m
   Assumed rotor diameter                           =  353.400 m
   Surface roughness length                         =    0.030 m

   Nyquist frequency of turbulent wind field        =    2.000 Hz

   Number of time steps in the FFT                  =     3600
   Number of time steps output                      =     3600
   Number of points simulated                       =     7527


Mean Flow Angles:

   Vertical   =   0.0 degrees
   Horizontal =   0.0 degrees

Mean Wind Speed Profile:

   Height    Wind Speed   Horizontal Angle  Vertical Angle  U-comp (X)   V-comp (Y)   W-comp (Z)
     (m)        (m/s)         (degrees)       (degrees)       (m/s)        (m/s)        (m/s)   
   ------    ----------   ----------------  --------------  ----------   ----------   ----------
    354.4       10.00          318.19            0.00          7.45        -6.67         0.00
    345.1       10.00          319.51            0.00          7.60        -6.49         0.00
    335.8       10.00          320.98            0.00          7.77        -6.30         0.00
    326.5       10.00          322.46            0.00          7.93        -6.09         0.00
    317.2       10.00          323.94            0.00          8.08        -5.89         0.00
    307.9       10.00          325.41            0.00          8.23        -5.68         0.00
    298.6       10.00          326.89            0.00          8.38        -5.46         0.00
    289.3       10.00          328.37            0.00          8.51        -5.25         0.00
    280.0       10.00          329.84            0.00          8.65        -5.02         0.00
    270.7       10.00          331.32            0.00          8.77        -4.80         0.00
    261.4       10.00          332.79            0.00          8.89        -4.57         0.00
    252.1       10.00          334.27            0.00          9.01        -4.34         0.00
    242.8       10.00          335.75            0.00          9.12        -4.11         0.00
    233.5       10.00          337.22            0.00          9.22        -3.87         0.00
    224.2       10.00          338.70            0.00          9.32        -3.63         0.00
    214.9       10.00          340.17            0.00          9.41        -3.39         0.00
    205.6       10.00          341.65            0.00          9.49        -3.15         0.00
    196.3       10.00          343.13            0.00          9.57        -2.90         0.00
    187.0       10.00          344.60            0.00          9.64        -2.66         0.00
    177.7       10.00          346.08            0.00          9.71        -2.41         0.00
    168.4       10.00          347.56            0.00          9.77        -2.15         0.00
    159.1       10.00          349.03            0.00          9.82        -1.90         0.00
    149.8       10.00          350.51            0.00          9.86        -1.65         0.00
    140.5       10.00          351.98            0.00          9.90        -1.39         0.00
    131.2       10.00          353.46            0.00          9.93        -1.14         0.00
    121.9       10.00          354.94            0.00          9.96        -0.88         0.00
    112.6       10.00          356.41            0.00          9.98        -0.63         0.00
    103.3       10.00          357.89            0.00          9.99        -0.37         0.00
     94.0       10.00          359.37            0.00         10.00        -0.11         0.00
     84.7       10.00          360.84            0.00         10.00         0.15         0.00
     75.4       10.00          362.32            0.00          9.99         0.40         0.00
     66.1       10.00            3.79            0.00          9.98         0.66         0.00
     56.8       10.00            5.27            0.00          9.96         0.92         0.00
     47.5       10.00            6.75            0.00          9.93         1.17         0.00
     38.2       10.00            8.22            0.00          9.90         1.43         0.00
     28.9       10.00            9.70            0.00          9.86         1.68         0.00
     19.6       10.00           11.17            0.00          9.81         1.94         0.00
     10.3       10.00           12.65            0.00          9.76         2.19         0.00
      1.0       10.00           14.13            0.00          9.70         2.44         0.00


Harvested Random Seeds after Generation of the Random Numbers:

    377667225 K 1
            0 K 2


Hub-Height Simulated Turbulence Statistical Summary:

   Type of Wind        Min (m/s)   Mean (m/s)    Max (m/s)  Sigma (m/s)       TI (%)
   ----------------    ---------   ----------    ---------  -----------       ------
   Longitudinal (u)         7.35        10.00        12.26        0.795        7.952
   Lateral (v)             -1.71         0.00         1.89        0.515        5.155
   Vertical (w)            -1.26         0.00         1.11        0.350        3.496
   U component              7.06         9.71        12.16        0.769        7.921
   V component             -4.14        -2.41        -0.50        0.554        5.708
   W component             -1.26         0.00         1.11        0.350        3.602
   Horizontal (U&V)         7.35        10.01        12.31        0.794        7.926
   Total                    7.35        10.02        12.31        0.794        7.922

                       Min Reynolds     Mean Reynolds    Max Reynolds    Correlation
   Product             Stress (m/s)^2   Stress (m/s)^2   Stress (m/s)^2  Coefficient
   ----------------    --------------   --------------   --------------  -----------
   u'w'                     -1.056            -0.003             1.462        -0.010
   u'v'                     -2.159            -0.043             2.739        -0.104
   v'w'                     -1.215             0.000             1.198         0.003


   Friction Velocity (Ustar)  =      0.054 m/s
   Maximum Instantaneous TKE  =      3.571 (m/s)^2
   Maximum Instantaneous CTKE =      1.537 (m/s)^2


Grid Point Variance Summary:

   Y-coord -892.80 -883.50 -874.20 -864.90 -855.60 -846.30 -837.00 -827.70 -818.40 -809.10 -799.80 -790.50 -781.20 -771.90 -762.60 -753.30 -744.00 -734.70 -725.40 -716.10 -706.80 -697.50 -688.20 -678.90 -669.60 -660.30 -651.00 -641.70 -632.40 -623.10 -613.80 -604.50 -595.20 -585.90 -576.60 -567.30 -558.00 -548.70 -539.40 -530.10 -520.80 -511.50 -502.20 -492.90 -483.60 -474.30 -465.00 -455.70 -446.40 -437.10 -427.80 -418.50 -409.20 -399.90 -390.60 -381.30 -372.00 -362.70 -353.40 -344.10 -334.80 -325.50 -316.20 -306.90 -297.60 -288.30 -279.00 -269.70 -260.40 -251.10 -241.80 -232.50 -223.20 -213.90 -204.60 -195.30 -186.00 -176.70 -167.40 -158.10 -148.80 -139.50 -130.20 -120.90 -111.60 -102.30  -93.00  -83.70  -74.40  -65.10  -55.80  -46.50  -37.20  -27.90  -18.60   -9.30    0.00    9.30   18.60   27.90   37.20   46.50   55.80   65.10   74.40   83.70   93.00  102.30  111.60  120.90  130.20  139.50  148.80  158.10  167.40  176.70  186.00  195.30  204.60  213.90  223.20  232.50  241.80  251.10  260.40  269.70  279.00  288.30  297.60  306.90  316.20  325.50  334.80  344.10  353.40  362.70  372.00  381.30  390.60  399.90  409.20  418.50  427.80  437.10  446.40  455.70  465.00  474.30  483.60  492.90  502.20  511.50  520.80  530.10  539.40  548.70  558.00  567.30  576.60  585.90  595.20  604.50  613.80  623.10  632.40  641.70  651.00  660.30  669.60  678.90  688.20  697.50  706.80  716.10  725.40  734.70  744.00  753.30  762.60  771.90  781.20  790.50  799.80  809.10  818.40  827.70  837.00  846.30  855.60  864.90  874.20  883.50  892.80

   Height   Standard deviation at grid points for the u component:
   354.40    0.768   0.785   0.761   0.749   0.678   0.663   0.667   0.693   0.708   0.654   0.665   0.688   0.680   0.696   0.706   0.723   0.710   0.695   0.713   0.669   0.631   0.654   0.665   0.679   0.717   0.682   0.732   0.714   0.760   0.798   0.832   0.754   0.765   0.809   0.844   0.876   0.842   0.837   0.786   0.758   0.651   0.665   0.669   0.652   0.630   0.641   0.576   0.632   0.648   0.666   0.697   0.680   0.689   0.713   0.696   0.675   0.676   0.685   0.693   0.646   0.659   0.712   0.716   0.727   0.745   0.679   0.669   0.655   0.687   0.655   0.664   0.671   0.720   0.684   0.659   0.671   0.693   0.692   0.646   0.683   0.649   0.675   0.654   0.721   0.693   0.661   0.674   0.629   0.635   0.597   0.619   0.659   0.621   0.595   0.597   0.562   0.613   0.615   0.580   0.656   0.625   0.641   0.612   0.650   0.684   0.704   0.735   0.738   0.712   0.712   0.699   0.741   0.745   0.780   0.708   0.676   0.691   0.704   0.753   0.794   0.747   0.729   0.756   0.812   0.774   0.750   0.728   0.719   0.759   0.766   0.648   0.660   0.700   0.707   0.700   0.720   0.665   0.702   0.661   0.638   0.634   0.651   0.679   0.675   0.640   0.637   0.659   0.665   0.674   0.712   0.722   0.709   0.696   0.675   0.652   0.659   0.643   0.667   0.675   0.620   0.584   0.621   0.684   0.641   0.646   0.658   0.617   0.656   0.628   0.718   0.673   0.658   0.710   0.677   0.699   0.684   0.679   0.656   0.718   0.682   0.628   0.610   0.624   0.610   0.643   0.616   0.671   0.686   0.672   0.659   0.631   0.610   0.578
   345.10    0.740   0.768   0.791   0.758   0.777   0.720   0.650   0.690   0.684   0.667   0.700   0.696   0.718   0.716   0.695   0.716   0.711   0.622   0.661   0.672   0.699   0.715   0.737   0.676   0.734   0.713   0.753   0.715   0.776   0.818   0.807   0.728   0.707   0.777   0.786   0.871   0.898   0.825   0.792   0.716   0.690   0.703   0.654   0.689   0.637   0.634   0.584   0.623   0.668   0.694   0.691   0.735   0.679   0.705   0.691   0.666   0.701   0.639   0.655   0.644   0.683   0.685   0.703   0.706   0.718   0.696   0.641   0.658   0.665   0.645   0.657   0.647   0.695   0.698   0.664   0.663   0.689   0.675   0.650   0.683   0.671   0.759   0.725   0.757   0.778   0.659   0.711   0.676   0.630   0.647   0.624   0.594   0.585   0.568   0.566   0.595   0.603   0.623   0.617   0.622   0.611   0.673   0.684   0.700   0.697   0.738   0.791   0.799   0.743   0.762   0.731   0.821   0.782   0.794   0.718   0.725   0.766   0.767   0.735   0.759   0.773   0.762   0.768   0.746   0.752   0.715   0.716   0.738   0.767   0.763   0.691   0.664   0.663   0.693   0.641   0.650   0.691   0.700   0.662   0.612   0.623   0.649   0.670   0.658   0.625   0.629   0.639   0.684   0.693   0.736   0.775   0.741   0.686   0.648   0.628   0.672   0.669   0.727   0.692   0.655   0.677   0.636   0.661   0.701   0.682   0.690   0.676   0.663   0.711   0.723   0.727   0.765   0.777   0.757   0.760   0.776   0.763   0.772   0.753   0.679   0.616   0.593   0.604   0.585   0.610   0.641   0.684   0.702   0.702   0.650   0.655   0.625   0.667
   335.80    0.772   0.781   0.810   0.763   0.776   0.717   0.715   0.701   0.690   0.678   0.728   0.742   0.743   0.707   0.676   0.654   0.646   0.606   0.579   0.602   0.654   0.706   0.699   0.712   0.749   0.787   0.678   0.726   0.714   0.733   0.746   0.759   0.751   0.736   0.731   0.819   0.861   0.786   0.821   0.748   0.693   0.643   0.652   0.705   0.656   0.610   0.639   0.691   0.603   0.631   0.689   0.718   0.697   0.714   0.693   0.730   0.713   0.696   0.694   0.681   0.630   0.647   0.710   0.699   0.679   0.643   0.677   0.639   0.687   0.668   0.660   0.648   0.639   0.706   0.704   0.707   0.661   0.652   0.679   0.723   0.755   0.792   0.741   0.789   0.785   0.758   0.684   0.668   0.664   0.637   0.577   0.590   0.625   0.640   0.623   0.616   0.594   0.598   0.610   0.649   0.700   0.668   0.690   0.719   0.743   0.737   0.776   0.731   0.728   0.721   0.779   0.842   0.865   0.808   0.821   0.816   0.742   0.777   0.745   0.752   0.731   0.737   0.737   0.724   0.703   0.717   0.735   0.755   0.731   0.754   0.710   0.696   0.668   0.627   0.623   0.628   0.632   0.655   0.630   0.615   0.622   0.682   0.665   0.615   0.631   0.617   0.636   0.667   0.689   0.746   0.766   0.752   0.709   0.681   0.656   0.664   0.697   0.708   0.706   0.673   0.712   0.663   0.680   0.695   0.666   0.671   0.704   0.691   0.690   0.729   0.755   0.794   0.794   0.777   0.770   0.826   0.828   0.801   0.776   0.673   0.623   0.569   0.561   0.569   0.617   0.631   0.670   0.658   0.649   0.658   0.651   0.622   0.662
   326.50    0.744   0.752   0.761   0.758   0.736   0.737   0.737   0.710   0.693   0.677   0.724   0.688   0.702   0.724   0.711   0.682   0.645   0.593   0.606   0.599   0.636   0.699   0.728   0.735   0.732   0.729   0.740   0.703   0.706   0.736   0.745   0.781   0.709   0.690   0.720   0.779   0.822   0.810   0.776   0.754   0.659   0.638   0.622   0.667   0.601   0.628   0.654   0.686   0.624   0.627   0.682   0.695   0.710   0.694   0.664   0.715   0.752   0.728   0.717   0.680   0.691   0.656   0.694   0.728   0.734   0.683   0.698   0.662   0.686   0.674   0.678   0.652   0.668   0.670   0.712   0.722   0.691   0.695   0.705   0.750   0.783   0.773   0.774   0.756   0.798   0.752   0.707   0.674   0.662   0.659   0.644   0.603   0.642   0.669   0.610   0.606   0.624   0.626   0.620   0.704   0.677   0.707   0.694   0.721   0.752   0.793   0.810   0.790   0.720   0.758   0.805   0.833   0.906   0.877   0.855   0.798   0.786   0.791   0.778   0.760   0.748   0.752   0.742   0.761   0.731   0.691   0.709   0.737   0.709   0.728   0.713   0.708   0.622   0.633   0.637   0.603   0.599   0.618   0.659   0.647   0.643   0.634   0.578   0.613   0.627   0.573   0.616   0.651   0.716   0.730   0.765   0.711   0.677   0.730   0.659   0.676   0.758   0.728   0.715   0.718   0.711   0.702   0.688   0.714   0.745   0.695   0.669   0.699   0.688   0.697   0.750   0.751   0.772   0.794   0.796   0.846   0.821   0.815   0.748   0.730   0.690   0.646   0.611   0.562   0.580   0.638   0.669   0.623   0.637   0.665   0.646   0.672   0.657
   317.20    0.716   0.741   0.732   0.756   0.709   0.674   0.711   0.694   0.712   0.707   0.699   0.696   0.737   0.723   0.670   0.661   0.669   0.594   0.606   0.598   0.652   0.715   0.746   0.719   0.699   0.698   0.706   0.690   0.670   0.645   0.682   0.694   0.699   0.727   0.775   0.767   0.804   0.815   0.744   0.713   0.673   0.628   0.624   0.641   0.640   0.693   0.692   0.703   0.652   0.678   0.664   0.703   0.668   0.678   0.686   0.708   0.739   0.699   0.730   0.723   0.748   0.669   0.708   0.697   0.723   0.672   0.704   0.695   0.717   0.655   0.679   0.674   0.638   0.663   0.672   0.731   0.708   0.723   0.717   0.719   0.745   0.806   0.770   0.784   0.713   0.768   0.771   0.732   0.717   0.701   0.674   0.656   0.625   0.626   0.600   0.582   0.600   0.614   0.607   0.604   0.651   0.688   0.701   0.738   0.777   0.819   0.900   0.919   0.784   0.827   0.833   0.820   0.865   0.892   0.835   0.834   0.790   0.801   0.743   0.791   0.790   0.755   0.779   0.727   0.702   0.687   0.713   0.715   0.731   0.729   0.696   0.667   0.619   0.616   0.622   0.598   0.641   0.632   0.633   0.638   0.602   0.649   0.616   0.620   0.648   0.637   0.619   0.689   0.731   0.768   0.775   0.738   0.747   0.710   0.677   0.722   0.744   0.772   0.765   0.800   0.807   0.792   0.778   0.716   0.729   0.722   0.660   0.719   0.673   0.667   0.702   0.760   0.805   0.797   0.801   0.799   0.829   0.812   0.729   0.741   0.685   0.637   0.635   0.648   0.639   0.660   0.649   0.631   0.622   0.641   0.639   0.619   0.644
   307.90    0.745   0.691   0.735   0.715   0.680   0.655   0.674   0.657   0.690   0.689   0.689   0.712   0.715   0.685   0.659   0.644   0.610   0.609   0.594   0.605   0.659   0.686   0.728   0.736   0.705   0.739   0.689   0.687   0.661   0.628   0.658   0.663   0.720   0.733   0.756   0.745   0.775   0.817   0.776   0.733   0.670   0.662   0.631   0.658   0.669   0.730   0.700   0.655   0.666   0.639   0.594   0.654   0.689   0.727   0.669   0.724   0.745   0.689   0.743   0.750   0.733   0.761   0.725   0.690   0.702   0.656   0.635   0.676   0.680   0.658   0.715   0.716   0.679   0.738   0.757   0.742   0.740   0.718   0.700   0.732   0.723   0.740   0.789   0.821   0.767   0.808   0.824   0.736   0.717   0.711   0.693   0.655   0.616   0.594   0.593   0.607   0.614   0.569   0.625   0.656   0.682   0.691   0.764   0.760   0.814   0.802   0.899   0.903   0.814   0.842   0.799   0.843   0.920   0.910   0.874   0.870   0.847   0.782   0.742   0.728   0.714   0.768   0.773   0.767   0.758   0.743   0.737   0.712   0.731   0.737   0.724   0.665   0.695   0.663   0.603   0.586   0.574   0.621   0.604   0.605   0.604   0.597   0.601   0.636   0.644   0.649   0.622   0.664   0.746   0.782   0.805   0.764   0.778   0.754   0.783   0.754   0.718   0.752   0.760   0.809   0.816   0.788   0.781   0.730   0.738   0.681   0.705   0.720   0.742   0.719   0.729   0.722   0.754   0.774   0.778   0.769   0.817   0.778   0.760   0.703   0.674   0.660   0.693   0.690   0.647   0.628   0.623   0.613   0.609   0.589   0.590   0.608   0.652
   298.60    0.763   0.732   0.688   0.712   0.641   0.647   0.678   0.700   0.722   0.719   0.678   0.640   0.655   0.655   0.638   0.618   0.601   0.608   0.617   0.653   0.632   0.657   0.663   0.705   0.736   0.768   0.679   0.664   0.646   0.657   0.637   0.652   0.712   0.737   0.755   0.740   0.775   0.812   0.759   0.725   0.715   0.680   0.664   0.671   0.684   0.713   0.754   0.690   0.689   0.627   0.604   0.637   0.701   0.693   0.706   0.716   0.715   0.758   0.748   0.717   0.738   0.736   0.730   0.674   0.623   0.642   0.689   0.668   0.677   0.742   0.748   0.726   0.738   0.747   0.785   0.803   0.732   0.723   0.683   0.724   0.749   0.761   0.794   0.839   0.799   0.805   0.861   0.797   0.726   0.660   0.648   0.652   0.633   0.623   0.649   0.658   0.631   0.619   0.643   0.638   0.692   0.697   0.776   0.794   0.779   0.781   0.787   0.833   0.854   0.807   0.839   0.887   0.960   0.909   0.912   0.907   0.871   0.846   0.797   0.713   0.752   0.777   0.810   0.780   0.795   0.755   0.728   0.734   0.750   0.740   0.725   0.673   0.706   0.681   0.630   0.597   0.613   0.622   0.627   0.663   0.578   0.587   0.620   0.617   0.647   0.620   0.674   0.635   0.753   0.802   0.787   0.770   0.779   0.803   0.763   0.754   0.715   0.787   0.836   0.809   0.855   0.806   0.825   0.788   0.709   0.718   0.692   0.712   0.743   0.751   0.729   0.769   0.734   0.716   0.748   0.751   0.821   0.812   0.802   0.769   0.682   0.689   0.708   0.693   0.666   0.681   0.654   0.615   0.616   0.595   0.651   0.624   0.679
   289.30    0.714   0.691   0.705   0.676   0.657   0.690   0.637   0.665   0.686   0.716   0.708   0.673   0.680   0.679   0.639   0.629   0.600   0.623   0.599   0.638   0.670   0.664   0.679   0.689   0.708   0.740   0.691   0.716   0.695   0.671   0.725   0.696   0.697   0.767   0.745   0.752   0.777   0.780   0.782   0.738   0.698   0.694   0.690   0.680   0.695   0.699   0.688   0.706   0.667   0.658   0.631   0.585   0.623   0.697   0.722   0.702   0.725   0.770   0.764   0.750   0.771   0.742   0.769   0.714   0.655   0.616   0.649   0.655   0.684   0.696   0.725   0.724   0.730   0.745   0.779   0.790   0.789   0.751   0.720   0.736   0.787   0.818   0.785   0.744   0.763   0.805   0.831   0.748   0.726   0.676   0.675   0.672   0.634   0.712   0.681   0.675   0.688   0.707   0.690   0.681   0.698   0.751   0.773   0.822   0.799   0.810   0.820   0.801   0.820   0.871   0.874   0.897   0.949   0.944   0.941   0.909   0.866   0.802   0.786   0.697   0.733   0.697   0.735   0.752   0.751   0.759   0.745   0.699   0.772   0.725   0.718   0.703   0.652   0.667   0.653   0.627   0.616   0.627   0.638   0.662   0.621   0.593   0.628   0.633   0.634   0.635   0.629   0.661   0.713   0.742   0.779   0.771   0.805   0.797   0.769   0.794   0.790   0.817   0.848   0.798   0.809   0.828   0.805   0.744   0.710   0.673   0.698   0.724   0.727   0.773   0.746   0.769   0.755   0.730   0.735   0.775   0.786   0.788   0.752   0.755   0.709   0.738   0.705   0.726   0.662   0.677   0.672   0.641   0.601   0.627   0.659   0.602   0.615
   280.00    0.717   0.725   0.711   0.666   0.681   0.679   0.676   0.685   0.709   0.768   0.720   0.701   0.678   0.720   0.714   0.679   0.620   0.633   0.651   0.692   0.669   0.694   0.741   0.714   0.689   0.745   0.753   0.716   0.755   0.761   0.760   0.736   0.699   0.747   0.730   0.737   0.736   0.744   0.700   0.736   0.760   0.712   0.699   0.683   0.695   0.702   0.623   0.625   0.656   0.638   0.615   0.603   0.640   0.706   0.732   0.709   0.748   0.733   0.749   0.782   0.767   0.737   0.749   0.662   0.679   0.662   0.671   0.663   0.707   0.655   0.710   0.772   0.784   0.787   0.816   0.803   0.782   0.774   0.737   0.767   0.860   0.895   0.820   0.792   0.789   0.791   0.796   0.731   0.737   0.706   0.667   0.680   0.660   0.743   0.738   0.783   0.765   0.725   0.675   0.750   0.778   0.770   0.756   0.771   0.778   0.748   0.773   0.798   0.825   0.824   0.811   0.874   0.934   0.904   0.948   0.923   0.869   0.850   0.763   0.741   0.761   0.751   0.729   0.705   0.715   0.737   0.758   0.729   0.764   0.759   0.742   0.676   0.668   0.684   0.646   0.714   0.685   0.702   0.657   0.651   0.583   0.602   0.605   0.632   0.660   0.616   0.658   0.606   0.635   0.650   0.707   0.723   0.741   0.787   0.789   0.828   0.788   0.789   0.869   0.841   0.774   0.766   0.785   0.755   0.676   0.699   0.739   0.729   0.710   0.740   0.700   0.683   0.729   0.738   0.739   0.728   0.774   0.742   0.771   0.753   0.735   0.741   0.672   0.677   0.681   0.657   0.656   0.691   0.683   0.638   0.652   0.647   0.646
   270.70    0.667   0.669   0.671   0.697   0.727   0.744   0.694   0.702   0.725   0.758   0.738   0.701   0.709   0.754   0.686   0.681   0.658   0.657   0.631   0.636   0.657   0.680   0.764   0.739   0.736   0.740   0.765   0.773   0.733   0.740   0.788   0.754   0.713   0.702   0.698   0.699   0.717   0.737   0.751   0.749   0.739   0.675   0.719   0.691   0.644   0.623   0.590   0.627   0.639   0.670   0.643   0.626   0.655   0.685   0.730   0.743   0.714   0.739   0.755   0.789   0.768   0.753   0.687   0.657   0.711   0.705   0.746   0.694   0.707   0.701   0.670   0.774   0.777   0.797   0.836   0.836   0.846   0.786   0.779   0.821   0.858   0.832   0.854   0.841   0.741   0.785   0.818   0.801   0.801   0.765   0.756   0.667   0.667   0.732   0.801   0.777   0.784   0.777   0.764   0.765   0.779   0.727   0.715   0.740   0.766   0.765   0.803   0.810   0.849   0.876   0.904   0.870   0.857   0.872   0.899   0.924   0.914   0.847   0.755   0.761   0.768   0.786   0.784   0.733   0.701   0.686   0.710   0.719   0.738   0.703   0.704   0.720   0.671   0.670   0.689   0.754   0.797   0.757   0.702   0.679   0.619   0.640   0.620   0.689   0.700   0.704   0.666   0.646   0.641   0.657   0.693   0.709   0.734   0.832   0.851   0.867   0.798   0.810   0.863   0.886   0.809   0.808   0.776   0.723   0.675   0.715   0.690   0.660   0.709   0.732   0.675   0.726   0.708   0.755   0.759   0.782   0.775   0.758   0.774   0.762   0.765   0.733   0.704   0.694   0.653   0.645   0.692   0.706   0.720   0.693   0.630   0.659   0.682
   261.40    0.632   0.613   0.627   0.697   0.748   0.761   0.701   0.732   0.720   0.730   0.738   0.759   0.721   0.700   0.695   0.678   0.647   0.657   0.636   0.648   0.638   0.642   0.748   0.706   0.720   0.755   0.769   0.750   0.721   0.754   0.757   0.726   0.666   0.739   0.707   0.684   0.693   0.721   0.732   0.737   0.703   0.684   0.669   0.667   0.702   0.649   0.670   0.635   0.629   0.627   0.582   0.585   0.599   0.652   0.681   0.708   0.731   0.719   0.687   0.761   0.722   0.719   0.720   0.733   0.752   0.762   0.758   0.728   0.750   0.721   0.741   0.749   0.766   0.783   0.807   0.785   0.820   0.745   0.797   0.817   0.874   0.896   0.836   0.807   0.788   0.836   0.815   0.819   0.806   0.764   0.709   0.723   0.728   0.779   0.820   0.828   0.842   0.773   0.729   0.727   0.720   0.718   0.751   0.761   0.773   0.759   0.799   0.826   0.900   0.903   0.872   0.865   0.875   0.899   0.888   0.927   0.904   0.856   0.827   0.785   0.794   0.797   0.799   0.761   0.693   0.723   0.698   0.666   0.652   0.639   0.707   0.736   0.692   0.664   0.735   0.784   0.785   0.754   0.729   0.696   0.614   0.619   0.675   0.708   0.737   0.687   0.655   0.684   0.686   0.669   0.679   0.700   0.751   0.825   0.859   0.844   0.835   0.798   0.859   0.861   0.789   0.773   0.804   0.778   0.763   0.709   0.672   0.685   0.711   0.715   0.696   0.750   0.714   0.765   0.752   0.782   0.755   0.748   0.756   0.774   0.744   0.702   0.684   0.672   0.645   0.651   0.670   0.653   0.668   0.653   0.662   0.649   0.672
   252.10    0.590   0.568   0.600   0.664   0.722   0.722   0.761   0.739   0.729   0.706   0.752   0.709   0.726   0.701   0.641   0.652   0.639   0.627   0.657   0.615   0.653   0.653   0.696   0.679   0.662   0.736   0.767   0.687   0.707   0.702   0.670   0.699   0.687   0.727   0.682   0.652   0.677   0.717   0.721   0.737   0.697   0.673   0.709   0.716   0.714   0.669   0.697   0.682   0.678   0.690   0.636   0.591   0.660   0.700   0.707   0.667   0.678   0.692   0.692   0.716   0.731   0.730   0.752   0.782   0.791   0.784   0.745   0.740   0.788   0.767   0.753   0.783   0.803   0.744   0.774   0.786   0.799   0.773   0.730   0.756   0.844   0.812   0.832   0.835   0.809   0.819   0.783   0.811   0.781   0.724   0.783   0.740   0.763   0.814   0.809   0.768   0.768   0.787   0.736   0.752   0.745   0.745   0.740   0.760   0.756   0.804   0.783   0.791   0.851   0.909   0.848   0.876   0.898   0.919   0.911   0.912   0.854   0.868   0.855   0.876   0.847   0.788   0.798   0.733   0.757   0.738   0.719   0.730   0.670   0.627   0.645   0.690   0.692   0.680   0.758   0.749   0.751   0.766   0.738   0.707   0.653   0.676   0.681   0.718   0.711   0.709   0.687   0.735   0.703   0.698   0.671   0.710   0.716   0.808   0.856   0.823   0.858   0.855   0.854   0.848   0.823   0.805   0.799   0.792   0.719   0.631   0.714   0.707   0.705   0.727   0.713   0.711   0.687   0.728   0.759   0.772   0.756   0.771   0.772   0.761   0.744   0.685   0.739   0.673   0.643   0.620   0.611   0.669   0.699   0.684   0.631   0.611   0.623
   242.80    0.648   0.635   0.636   0.633   0.684   0.738   0.773   0.733   0.732   0.778   0.757   0.743   0.743   0.683   0.653   0.626   0.615   0.595   0.603   0.630   0.651   0.636   0.653   0.667   0.685   0.721   0.764   0.690   0.675   0.685   0.662   0.575   0.604   0.657   0.624   0.650   0.654   0.660   0.715   0.693   0.663   0.660   0.715   0.702   0.667   0.698   0.700   0.634   0.675   0.694   0.652   0.613   0.657   0.723   0.699   0.722   0.698   0.698   0.690   0.709   0.707   0.709   0.753   0.814   0.796   0.794   0.797   0.801   0.814   0.828   0.782   0.800   0.815   0.806   0.806   0.790   0.758   0.738   0.777   0.782   0.849   0.805   0.788   0.804   0.801   0.831   0.820   0.814   0.756   0.792   0.770   0.738   0.787   0.807   0.768   0.745   0.770   0.728   0.708   0.694   0.782   0.748   0.728   0.776   0.748   0.786   0.799   0.778   0.840   0.894   0.880   0.896   0.910   0.868   0.922   0.944   0.892   0.872   0.896   0.870   0.849   0.810   0.802   0.781   0.777   0.748   0.724   0.675   0.641   0.683   0.686   0.666   0.692   0.710   0.770   0.775   0.750   0.756   0.713   0.676   0.674   0.719   0.695   0.692   0.715   0.639   0.676   0.686   0.708   0.664   0.670   0.709   0.713   0.779   0.811   0.818   0.811   0.818   0.863   0.861   0.784   0.797   0.824   0.772   0.689   0.688   0.686   0.738   0.756   0.770   0.740   0.758   0.700   0.734   0.741   0.800   0.774   0.761   0.755   0.743   0.719   0.711   0.695   0.697   0.663   0.624   0.658   0.663   0.688   0.681   0.682   0.624   0.634
   233.50    0.643   0.620   0.653   0.636   0.684   0.714   0.727   0.682   0.683   0.744   0.763   0.753   0.677   0.680   0.646   0.621   0.592   0.547   0.609   0.654   0.632   0.614   0.676   0.627   0.636   0.687   0.739   0.676   0.661   0.696   0.699   0.591   0.568   0.586   0.605   0.634   0.640   0.699   0.664   0.690   0.736   0.678   0.702   0.746   0.649   0.676   0.686   0.644   0.655   0.671   0.658   0.697   0.707   0.776   0.759   0.739   0.744   0.750   0.749   0.766   0.762   0.777   0.795   0.798   0.781   0.837   0.836   0.820   0.864   0.879   0.846   0.788   0.788   0.873   0.790   0.802   0.791   0.794   0.840   0.866   0.812   0.868   0.828   0.879   0.817   0.835   0.769   0.811   0.817   0.810   0.807   0.792   0.824   0.833   0.805   0.808   0.757   0.721   0.759   0.753   0.754   0.762   0.781   0.826   0.805   0.787   0.795   0.791   0.861   0.907   0.837   0.858   0.886   0.907   0.914   0.948   0.905   0.869   0.845   0.847   0.836   0.820   0.814   0.797   0.736   0.719   0.687   0.689   0.651   0.664   0.700   0.667   0.686   0.726   0.775   0.758   0.811   0.793   0.790   0.737   0.745   0.747   0.691   0.670   0.681   0.651   0.657   0.670   0.665   0.667   0.615   0.679   0.723   0.693   0.743   0.745   0.763   0.790   0.812   0.837   0.822   0.822   0.866   0.777   0.773   0.668   0.678   0.772   0.772   0.778   0.817   0.759   0.737   0.775   0.769   0.783   0.779   0.764   0.734   0.694   0.734   0.713   0.687   0.672   0.663   0.655   0.639   0.667   0.705   0.686   0.697   0.696   0.657
   224.20    0.638   0.624   0.650   0.642   0.689   0.731   0.735   0.764   0.721   0.729   0.719   0.775   0.682   0.664   0.672   0.569   0.605   0.616   0.662   0.661   0.623   0.646   0.633   0.635   0.616   0.691   0.704   0.703   0.652   0.638   0.629   0.601   0.601   0.576   0.592   0.639   0.621   0.680   0.698   0.706   0.761   0.688   0.674   0.673   0.631   0.678   0.665   0.640   0.664   0.712   0.714   0.739   0.755   0.761   0.764   0.780   0.750   0.760   0.732   0.734   0.766   0.783   0.775   0.802   0.847   0.847   0.843   0.823   0.812   0.871   0.813   0.803   0.756   0.813   0.841   0.840   0.834   0.822   0.859   0.885   0.878   0.872   0.837   0.887   0.940   0.840   0.820   0.817   0.833   0.790   0.779   0.771   0.789   0.847   0.848   0.850   0.814   0.762   0.803   0.802   0.832   0.842   0.870   0.860   0.827   0.783   0.816   0.842   0.852   0.878   0.820   0.778   0.817   0.833   0.897   0.893   0.833   0.815   0.847   0.829   0.833   0.823   0.752   0.751   0.766   0.764   0.709   0.680   0.686   0.708   0.703   0.694   0.740   0.757   0.766   0.772   0.821   0.804   0.832   0.781   0.774   0.706   0.712   0.713   0.698   0.742   0.688   0.680   0.642   0.688   0.719   0.697   0.733   0.671   0.682   0.739   0.747   0.781   0.809   0.805   0.831   0.770   0.801   0.836   0.788   0.675   0.709   0.780   0.779   0.767   0.793   0.808   0.814   0.802   0.783   0.760   0.816   0.804   0.729   0.720   0.714   0.708   0.706   0.664   0.699   0.712   0.689   0.715   0.709   0.704   0.693   0.671   0.658
   214.90    0.680   0.635   0.648   0.671   0.683   0.714   0.788   0.768   0.743   0.731   0.775   0.749   0.727   0.707   0.700   0.616   0.640   0.601   0.642   0.622   0.606   0.626   0.697   0.696   0.665   0.634   0.693   0.628   0.655   0.690   0.627   0.592   0.612   0.604   0.659   0.623   0.655   0.692   0.679   0.714   0.759   0.742   0.735   0.701   0.682   0.631   0.725   0.703   0.714   0.713   0.719   0.676   0.723   0.757   0.754   0.764   0.743   0.762   0.740   0.750   0.798   0.817   0.759   0.809   0.811   0.810   0.803   0.866   0.839   0.840   0.819   0.824   0.848   0.826   0.882   0.879   0.892   0.857   0.919   0.900   0.926   0.919   0.851   0.804   0.866   0.898   0.839   0.822   0.814   0.819   0.776   0.739   0.802   0.827   0.830   0.867   0.828   0.838   0.817   0.824   0.847   0.906   0.891   0.847   0.842   0.822   0.805   0.806   0.833   0.867   0.821   0.808   0.781   0.824   0.817   0.872   0.829   0.833   0.822   0.777   0.819   0.852   0.747   0.688   0.743   0.731   0.694   0.670   0.742   0.749   0.669   0.710   0.735   0.724   0.759   0.774   0.793   0.800   0.789   0.773   0.804   0.714   0.742   0.773   0.775   0.757   0.792   0.709   0.664   0.670   0.690   0.699   0.724   0.687   0.702   0.719   0.754   0.767   0.783   0.813   0.758   0.812   0.835   0.778   0.761   0.703   0.739   0.746   0.811   0.737   0.768   0.795   0.803   0.789   0.781   0.807   0.850   0.789   0.746   0.695   0.708   0.690   0.711   0.683   0.696   0.689   0.664   0.690   0.694   0.678   0.637   0.636   0.639
   205.60    0.684   0.656   0.691   0.670   0.754   0.717   0.772   0.824   0.798   0.757   0.847   0.767   0.717   0.704   0.674   0.625   0.640   0.608   0.644   0.639   0.658   0.728   0.737   0.763   0.692   0.652   0.688   0.666   0.625   0.638   0.642   0.608   0.621   0.643   0.629   0.630   0.694   0.706   0.742   0.738   0.766   0.757   0.777   0.751   0.684   0.675   0.709   0.741   0.713   0.678   0.680   0.713   0.724   0.768   0.757   0.756   0.712   0.733   0.760   0.749   0.804   0.775   0.771   0.795   0.785   0.820   0.802   0.836   0.841   0.841   0.839   0.878   0.932   0.910   0.968   0.943   0.910   0.884   0.887   0.844   0.877   0.868   0.800   0.833   0.814   0.843   0.880   0.821   0.815   0.844   0.834   0.762   0.804   0.816   0.767   0.813   0.798   0.819   0.852   0.856   0.871   0.884   0.902   0.862   0.860   0.910   0.896   0.833   0.890   0.821   0.808   0.811   0.775   0.739   0.767   0.839   0.791   0.791   0.784   0.763   0.805   0.787   0.730   0.709   0.719   0.706   0.687   0.673   0.667   0.710   0.715   0.725   0.748   0.780   0.754   0.816   0.770   0.747   0.755   0.758   0.741   0.766   0.775   0.794   0.798   0.789   0.802   0.771   0.691   0.684   0.708   0.690   0.667   0.687   0.737   0.732   0.673   0.705   0.708   0.721   0.766   0.778   0.823   0.822   0.747   0.701   0.702   0.765   0.748   0.758   0.775   0.780   0.802   0.788   0.822   0.803   0.785   0.785   0.783   0.729   0.739   0.676   0.656   0.665   0.655   0.640   0.634   0.691   0.636   0.614   0.655   0.674   0.656
   196.30    0.659   0.675   0.711   0.737   0.758   0.800   0.852   0.871   0.860   0.827   0.827   0.775   0.694   0.662   0.664   0.653   0.622   0.631   0.652   0.676   0.703   0.744   0.759   0.766   0.718   0.702   0.674   0.658   0.643   0.675   0.613   0.652   0.637   0.644   0.667   0.648   0.692   0.671   0.688   0.698   0.695   0.724   0.723   0.730   0.705   0.722   0.726   0.699   0.698   0.650   0.632   0.668   0.675   0.759   0.760   0.726   0.706   0.693   0.719   0.781   0.751   0.733   0.757   0.752   0.770   0.822   0.854   0.874   0.868   0.889   0.899   0.960   1.018   0.971   0.977   0.916   0.914   0.869   0.822   0.788   0.853   0.864   0.879   0.836   0.867   0.867   0.924   0.859   0.859   0.787   0.805   0.763   0.795   0.803   0.786   0.776   0.776   0.780   0.848   0.899   0.923   0.924   0.861   0.836   0.854   0.866   0.900   0.838   0.838   0.867   0.826   0.815   0.767   0.755   0.807   0.824   0.725   0.771   0.819   0.768   0.744   0.738   0.710   0.687   0.695   0.720   0.691   0.656   0.696   0.662   0.712   0.745   0.784   0.784   0.808   0.852   0.824   0.754   0.813   0.786   0.795   0.850   0.837   0.809   0.839   0.841   0.828   0.745   0.744   0.712   0.736   0.742   0.732   0.761   0.780   0.763   0.685   0.689   0.637   0.623   0.694   0.727   0.754   0.778   0.734   0.727   0.679   0.749   0.739   0.757   0.788   0.801   0.801   0.794   0.826   0.808   0.762   0.811   0.764   0.783   0.658   0.646   0.668   0.632   0.622   0.639   0.668   0.670   0.650   0.656   0.669   0.666   0.691
   187.00    0.679   0.692   0.747   0.762   0.799   0.882   0.918   0.942   0.862   0.797   0.785   0.816   0.750   0.668   0.622   0.576   0.606   0.663   0.668   0.660   0.702   0.732   0.737   0.756   0.707   0.683   0.649   0.707   0.724   0.686   0.645   0.670   0.668   0.659   0.653   0.657   0.632   0.670   0.669   0.658   0.657   0.692   0.740   0.760   0.682   0.675   0.733   0.666   0.681   0.674   0.630   0.670   0.755   0.750   0.752   0.755   0.740   0.725   0.749   0.751   0.739   0.728   0.761   0.760   0.797   0.843   0.867   0.862   0.864   0.906   0.978   0.965   0.960   0.970   0.949   0.867   0.839   0.862   0.853   0.860   0.838   0.868   0.865   0.855   0.812   0.859   0.868   0.864   0.839   0.828   0.802   0.810   0.767   0.781   0.751   0.785   0.803   0.840   0.860   0.894   0.897   0.871   0.849   0.837   0.892   0.857   0.846   0.861   0.760   0.826   0.843   0.773   0.771   0.813   0.783   0.744   0.723   0.774   0.825   0.760   0.760   0.770   0.716   0.715   0.712   0.697   0.707   0.691   0.645   0.656   0.706   0.759   0.740   0.733   0.777   0.818   0.871   0.854   0.790   0.783   0.803   0.842   0.849   0.816   0.810   0.828   0.834   0.768   0.802   0.765   0.740   0.734   0.736   0.768   0.775   0.725   0.709   0.648   0.590   0.612   0.608   0.692   0.750   0.757   0.746   0.690   0.728   0.755   0.769   0.785   0.782   0.814   0.774   0.757   0.758   0.824   0.758   0.782   0.769   0.746   0.662   0.669   0.663   0.643   0.636   0.684   0.635   0.644   0.619   0.617   0.640   0.666   0.706
   177.70    0.623   0.716   0.790   0.746   0.816   0.826   0.852   0.904   0.878   0.800   0.795   0.772   0.738   0.654   0.614   0.587   0.607   0.666   0.669   0.695   0.706   0.697   0.745   0.735   0.702   0.702   0.682   0.675   0.696   0.662   0.670   0.642   0.661   0.650   0.619   0.656   0.634   0.647   0.652   0.632   0.682   0.717   0.697   0.658   0.646   0.702   0.729   0.693   0.661   0.738   0.689   0.703   0.731   0.779   0.738   0.793   0.761   0.727   0.734   0.764   0.718   0.722   0.773   0.820   0.823   0.844   0.807   0.820   0.807   0.883   0.907   0.916   0.940   0.928   0.878   0.813   0.844   0.891   0.864   0.836   0.793   0.832   0.850   0.825   0.839   0.830   0.822   0.827   0.810   0.814   0.783   0.780   0.767   0.802   0.838   0.818   0.795   0.848   0.917   0.828   0.835   0.825   0.834   0.900   0.886   0.858   0.838   0.842   0.747   0.840   0.863   0.816   0.746   0.759   0.740   0.764   0.705   0.743   0.782   0.792   0.707   0.698   0.690   0.695   0.700   0.725   0.727   0.725   0.678   0.709   0.697   0.731   0.770   0.776   0.794   0.812   0.830   0.827   0.767   0.789   0.801   0.790   0.837   0.820   0.802   0.815   0.783   0.800   0.811   0.746   0.724   0.767   0.717   0.744   0.739   0.728   0.713   0.669   0.587   0.597   0.647   0.645   0.666   0.730   0.688   0.665   0.690   0.752   0.742   0.801   0.779   0.820   0.767   0.776   0.760   0.796   0.798   0.775   0.833   0.763   0.716   0.692   0.701   0.693   0.689   0.632   0.655   0.631   0.598   0.641   0.668   0.643   0.711
   168.40    0.636   0.721   0.763   0.738   0.727   0.780   0.777   0.811   0.822   0.766   0.754   0.725   0.677   0.680   0.658   0.601   0.605   0.696   0.681   0.679   0.729   0.724   0.725   0.765   0.745   0.719   0.660   0.701   0.676   0.660   0.626   0.647   0.664   0.655   0.680   0.627   0.647   0.640   0.619   0.655   0.681   0.709   0.673   0.635   0.694   0.654   0.734   0.696   0.750   0.736   0.701   0.752   0.798   0.768   0.793   0.762   0.747   0.741   0.753   0.745   0.716   0.732   0.738   0.780   0.802   0.839   0.763   0.824   0.814   0.847   0.913   0.894   0.908   0.900   0.879   0.881   0.841   0.848   0.855   0.864   0.827   0.828   0.785   0.821   0.806   0.760   0.800   0.799   0.789   0.839   0.793   0.807   0.814   0.809   0.850   0.828   0.781   0.843   0.861   0.827   0.792   0.797   0.842   0.806   0.858   0.848   0.856   0.796   0.790   0.836   0.876   0.838   0.785   0.773   0.773   0.735   0.737   0.729   0.733   0.724   0.723   0.688   0.720   0.729   0.669   0.736   0.735   0.738   0.696   0.710   0.729   0.742   0.723   0.710   0.779   0.819   0.768   0.765   0.779   0.780   0.756   0.782   0.825   0.821   0.811   0.739   0.740   0.789   0.802   0.792   0.779   0.736   0.756   0.707   0.709   0.692   0.724   0.671   0.675   0.622   0.649   0.654   0.670   0.693   0.724   0.662   0.692   0.752   0.803   0.804   0.780   0.799   0.797   0.752   0.796   0.781   0.795   0.803   0.777   0.779   0.734   0.707   0.737   0.686   0.666   0.635   0.620   0.640   0.598   0.648   0.652   0.658   0.718
   159.10    0.647   0.730   0.736   0.762   0.779   0.803   0.785   0.795   0.787   0.755   0.777   0.756   0.679   0.656   0.667   0.646   0.633   0.696   0.667   0.674   0.697   0.754   0.745   0.733   0.806   0.760   0.679   0.654   0.674   0.662   0.650   0.650   0.665   0.652   0.689   0.653   0.653   0.664   0.596   0.621   0.648   0.674   0.683   0.633   0.630   0.632   0.666   0.708   0.729   0.710   0.740   0.754   0.767   0.733   0.739   0.690   0.705   0.727   0.727   0.707   0.741   0.730   0.727   0.789   0.805   0.809   0.810   0.805   0.846   0.841   0.872   0.920   0.910   0.906   0.935   0.869   0.868   0.790   0.773   0.789   0.768   0.729   0.773   0.789   0.854   0.846   0.774   0.784   0.786   0.790   0.787   0.834   0.833   0.826   0.820   0.851   0.817   0.785   0.750   0.759   0.753   0.733   0.807   0.834   0.842   0.835   0.803   0.813   0.822   0.880   0.830   0.798   0.765   0.777   0.767   0.710   0.706   0.697   0.745   0.696   0.688   0.668   0.709   0.710   0.733   0.755   0.725   0.719   0.692   0.695   0.723   0.706   0.723   0.760   0.802   0.818   0.820   0.741   0.699   0.756   0.742   0.752   0.716   0.779   0.795   0.756   0.773   0.842   0.792   0.763   0.746   0.737   0.720   0.742   0.711   0.746   0.745   0.700   0.685   0.672   0.656   0.645   0.713   0.696   0.714   0.768   0.764   0.774   0.830   0.853   0.837   0.838   0.805   0.812   0.840   0.879   0.809   0.785   0.750   0.716   0.662   0.641   0.722   0.687   0.684   0.640   0.628   0.601   0.582   0.654   0.661   0.680   0.719
   149.80    0.612   0.704   0.690   0.713   0.774   0.832   0.817   0.794   0.778   0.828   0.772   0.780   0.719   0.633   0.642   0.634   0.613   0.651   0.637   0.646   0.703   0.757   0.712   0.720   0.776   0.795   0.734   0.706   0.666   0.694   0.663   0.665   0.682   0.632   0.693   0.646   0.637   0.656   0.594   0.617   0.627   0.631   0.619   0.636   0.629   0.650   0.645   0.684   0.707   0.725   0.743   0.775   0.758   0.796   0.757   0.692   0.703   0.709   0.701   0.716   0.739   0.729   0.729   0.702   0.746   0.769   0.773   0.861   0.893   0.853   0.892   0.881   0.874   0.892   0.864   0.853   0.843   0.790   0.758   0.723   0.757   0.715   0.757   0.736   0.816   0.811   0.797   0.814   0.805   0.813   0.843   0.830   0.875   0.823   0.798   0.824   0.755   0.761   0.734   0.793   0.764   0.782   0.790   0.820   0.785   0.823   0.847   0.828   0.850   0.822   0.863   0.806   0.763   0.821   0.773   0.728   0.717   0.729   0.760   0.678   0.692   0.652   0.710   0.736   0.765   0.769   0.729   0.750   0.732   0.748   0.725   0.722   0.737   0.730   0.762   0.806   0.782   0.763   0.733   0.715   0.758   0.766   0.746   0.808   0.774   0.792   0.761   0.805   0.827   0.869   0.808   0.746   0.776   0.763   0.767   0.758   0.777   0.709   0.730   0.792   0.713   0.685   0.676   0.722   0.697   0.795   0.834   0.837   0.854   0.862   0.877   0.890   0.852   0.770   0.783   0.845   0.817   0.721   0.719   0.705   0.642   0.661   0.681   0.675   0.645   0.632   0.643   0.589   0.648   0.676   0.686   0.694   0.743
   140.50    0.645   0.703   0.718   0.773   0.790   0.761   0.813   0.799   0.779   0.787   0.733   0.721   0.662   0.635   0.635   0.641   0.673   0.631   0.572   0.578   0.652   0.723   0.722   0.713   0.824   0.799   0.756   0.699   0.675   0.665   0.654   0.652   0.659   0.659   0.697   0.739   0.741   0.697   0.621   0.592   0.650   0.640   0.626   0.652   0.649   0.662   0.644   0.681   0.740   0.736   0.763   0.737   0.739   0.771   0.776   0.750   0.718   0.707   0.717   0.753   0.748   0.728   0.717   0.712   0.743   0.737   0.790   0.881   0.884   0.879   0.822   0.877   0.868   0.843   0.796   0.771   0.810   0.786   0.784   0.737   0.704   0.690   0.689   0.699   0.756   0.772   0.814   0.787   0.818   0.839   0.809   0.800   0.891   0.862   0.839   0.829   0.797   0.742   0.747   0.753   0.799   0.789   0.820   0.847   0.797   0.814   0.835   0.872   0.846   0.850   0.848   0.825   0.763   0.818   0.810   0.795   0.745   0.760   0.699   0.670   0.701   0.753   0.754   0.793   0.715   0.742   0.758   0.766   0.758   0.703   0.708   0.725   0.715   0.722   0.777   0.767   0.730   0.705   0.747   0.744   0.742   0.755   0.762   0.752   0.749   0.771   0.789   0.784   0.847   0.870   0.895   0.784   0.785   0.792   0.846   0.815   0.811   0.760   0.756   0.726   0.712   0.731   0.652   0.670   0.749   0.765   0.776   0.803   0.826   0.833   0.921   0.910   0.857   0.791   0.776   0.778   0.780   0.732   0.712   0.658   0.699   0.684   0.716   0.717   0.659   0.636   0.662   0.646   0.655   0.700   0.738   0.749   0.740
   131.20    0.629   0.658   0.718   0.759   0.795   0.804   0.815   0.753   0.778   0.744   0.741   0.708   0.655   0.629   0.699   0.693   0.673   0.628   0.624   0.636   0.625   0.687   0.698   0.694   0.765   0.707   0.707   0.685   0.657   0.689   0.702   0.725   0.696   0.644   0.686   0.737   0.738   0.678   0.654   0.608   0.638   0.591   0.614   0.616   0.631   0.706   0.685   0.739   0.769   0.753   0.715   0.766   0.772   0.779   0.826   0.757   0.736   0.709   0.712   0.759   0.795   0.737   0.758   0.758   0.772   0.729   0.786   0.844   0.912   0.875   0.836   0.822   0.810   0.734   0.750   0.769   0.790   0.861   0.822   0.738   0.727   0.720   0.677   0.699   0.767   0.744   0.762   0.790   0.826   0.838   0.824   0.811   0.779   0.819   0.776   0.778   0.794   0.723   0.686   0.709   0.725   0.723   0.802   0.864   0.858   0.849   0.852   0.863   0.875   0.819   0.822   0.776   0.763   0.790   0.843   0.846   0.751   0.758   0.754   0.681   0.717   0.736   0.755   0.745   0.736   0.712   0.712   0.694   0.660   0.679   0.668   0.675   0.671   0.716   0.747   0.725   0.693   0.720   0.707   0.735   0.731   0.729   0.758   0.764   0.746   0.713   0.726   0.774   0.817   0.843   0.827   0.801   0.759   0.774   0.786   0.751   0.732   0.753   0.737   0.745   0.687   0.712   0.679   0.689   0.743   0.771   0.751   0.832   0.858   0.894   0.882   0.842   0.814   0.761   0.753   0.749   0.759   0.697   0.672   0.705   0.661   0.647   0.654   0.666   0.668   0.649   0.659   0.649   0.644   0.652   0.707   0.737   0.708
   121.90    0.655   0.688   0.737   0.771   0.772   0.766   0.761   0.772   0.723   0.755   0.734   0.688   0.687   0.679   0.670   0.684   0.655   0.640   0.661   0.585   0.670   0.681   0.682   0.722   0.740   0.744   0.644   0.648   0.651   0.641   0.718   0.750   0.676   0.658   0.707   0.731   0.724   0.686   0.659   0.651   0.617   0.610   0.599   0.616   0.652   0.675   0.724   0.731   0.734   0.733   0.766   0.740   0.738   0.786   0.769   0.737   0.738   0.689   0.663   0.759   0.704   0.764   0.775   0.714   0.726   0.720   0.761   0.807   0.901   0.909   0.890   0.792   0.761   0.750   0.707   0.777   0.806   0.841   0.753   0.743   0.771   0.729   0.699   0.746   0.777   0.772   0.785   0.782   0.779   0.780   0.832   0.821   0.803   0.786   0.789   0.758   0.779   0.722   0.682   0.723   0.789   0.774   0.826   0.848   0.881   0.848   0.861   0.878   0.844   0.904   0.824   0.792   0.771   0.794   0.841   0.832   0.747   0.736   0.677   0.722   0.776   0.750   0.759   0.738   0.733   0.700   0.698   0.695   0.689   0.686   0.680   0.650   0.662   0.663   0.657   0.713   0.722   0.732   0.715   0.721   0.767   0.736   0.715   0.719   0.697   0.692   0.702   0.723   0.785   0.768   0.821   0.732   0.699   0.689   0.752   0.708   0.719   0.721   0.733   0.725   0.695   0.749   0.668   0.689   0.790   0.779   0.792   0.830   0.789   0.796   0.831   0.798   0.809   0.760   0.708   0.756   0.724   0.681   0.660   0.701   0.701   0.668   0.618   0.616   0.672   0.679   0.657   0.625   0.614   0.622   0.627   0.680   0.670
   112.60    0.633   0.665   0.728   0.771   0.752   0.745   0.745   0.718   0.711   0.738   0.720   0.689   0.739   0.707   0.647   0.643   0.682   0.648   0.625   0.616   0.674   0.691   0.698   0.715   0.751   0.720   0.703   0.672   0.693   0.660   0.695   0.686   0.700   0.721   0.702   0.713   0.705   0.658   0.646   0.623   0.653   0.661   0.615   0.605   0.634   0.676   0.704   0.674   0.726   0.735   0.756   0.740   0.714   0.770   0.692   0.679   0.715   0.687   0.708   0.685   0.743   0.758   0.738   0.745   0.699   0.783   0.802   0.841   0.890   0.892   0.911   0.855   0.783   0.781   0.779   0.719   0.798   0.784   0.794   0.756   0.775   0.719   0.779   0.812   0.805   0.792   0.808   0.780   0.726   0.755   0.763   0.770   0.735   0.731   0.753   0.766   0.744   0.704   0.714   0.704   0.812   0.788   0.855   0.868   0.838   0.851   0.892   0.869   0.852   0.894   0.865   0.863   0.807   0.811   0.805   0.761   0.751   0.748   0.713   0.729   0.798   0.818   0.752   0.746   0.732   0.722   0.717   0.727   0.718   0.730   0.693   0.646   0.640   0.647   0.671   0.678   0.716   0.712   0.683   0.727   0.771   0.713   0.714   0.691   0.714   0.654   0.690   0.668   0.701   0.761   0.769   0.712   0.679   0.664   0.699   0.697   0.710   0.748   0.719   0.707   0.662   0.719   0.729   0.766   0.817   0.787   0.846   0.810   0.816   0.816   0.767   0.806   0.748   0.710   0.723   0.730   0.690   0.721   0.662   0.720   0.690   0.629   0.682   0.681   0.676   0.688   0.698   0.668   0.588   0.628   0.653   0.680   0.695
   103.30    0.648   0.677   0.763   0.778   0.782   0.709   0.695   0.751   0.723   0.762   0.711   0.693   0.678   0.669   0.671   0.715   0.686   0.673   0.661   0.654   0.689   0.712   0.724   0.714   0.717   0.714   0.710   0.725   0.670   0.659   0.644   0.654   0.658   0.720   0.725   0.660   0.683   0.681   0.693   0.683   0.652   0.675   0.640   0.602   0.627   0.714   0.688   0.651   0.708   0.665   0.694   0.717   0.649   0.715   0.687   0.723   0.691   0.666   0.664   0.700   0.729   0.746   0.699   0.731   0.731   0.755   0.815   0.841   0.874   0.894   0.915   0.894   0.819   0.770   0.734   0.722   0.754   0.774   0.857   0.790   0.759   0.756   0.821   0.841   0.767   0.778   0.758   0.831   0.746   0.719   0.745   0.724   0.674   0.712   0.776   0.750   0.741   0.713   0.689   0.731   0.778   0.754   0.801   0.825   0.845   0.831   0.902   0.850   0.845   0.902   0.874   0.839   0.764   0.781   0.757   0.765   0.724   0.735   0.770   0.700   0.780   0.824   0.793   0.765   0.719   0.754   0.727   0.665   0.697   0.674   0.629   0.608   0.630   0.663   0.684   0.713   0.707   0.741   0.731   0.705   0.719   0.720   0.729   0.689   0.723   0.674   0.674   0.693   0.717   0.723   0.755   0.673   0.670   0.666   0.707   0.720   0.698   0.705   0.673   0.673   0.704   0.736   0.767   0.807   0.793   0.831   0.835   0.835   0.808   0.766   0.762   0.762   0.763   0.714   0.693   0.693   0.682   0.676   0.674   0.712   0.727   0.706   0.689   0.715   0.697   0.685   0.642   0.631   0.657   0.660   0.669   0.693   0.730
    94.00    0.693   0.769   0.752   0.750   0.749   0.733   0.712   0.746   0.734   0.788   0.704   0.730   0.718   0.724   0.705   0.772   0.765   0.774   0.711   0.720   0.727   0.744   0.738   0.720   0.728   0.696   0.715   0.720   0.704   0.689   0.695   0.696   0.673   0.642   0.686   0.676   0.702   0.690   0.728   0.707   0.667   0.678   0.632   0.574   0.606   0.681   0.711   0.659   0.667   0.672   0.699   0.674   0.631   0.646   0.694   0.756   0.744   0.698   0.657   0.686   0.693   0.714   0.707   0.735   0.778   0.724   0.809   0.860   0.866   0.860   0.878   0.811   0.827   0.780   0.762   0.750   0.797   0.779   0.808   0.843   0.798   0.813   0.813   0.744   0.773   0.758   0.780   0.773   0.785   0.772   0.740   0.724   0.717   0.695   0.765   0.793   0.700   0.727   0.697   0.732   0.763   0.762   0.695   0.771   0.795   0.826   0.894   0.848   0.870   0.874   0.834   0.810   0.781   0.789   0.724   0.739   0.754   0.814   0.744   0.778   0.759   0.822   0.785   0.772   0.745   0.760   0.753   0.730   0.720   0.698   0.648   0.632   0.608   0.610   0.711   0.719   0.745   0.788   0.794   0.721   0.709   0.676   0.735   0.706   0.749   0.723   0.743   0.678   0.656   0.668   0.675   0.675   0.711   0.711   0.680   0.683   0.667   0.664   0.705   0.723   0.758   0.760   0.785   0.826   0.775   0.790   0.836   0.784   0.760   0.726   0.748   0.790   0.713   0.677   0.694   0.675   0.679   0.669   0.693   0.735   0.720   0.678   0.692   0.701   0.713   0.657   0.619   0.641   0.666   0.696   0.697   0.692   0.741
    84.70    0.719   0.755   0.778   0.770   0.757   0.759   0.745   0.728   0.756   0.789   0.758   0.712   0.737   0.745   0.755   0.761   0.721   0.747   0.715   0.712   0.722   0.782   0.750   0.756   0.735   0.692   0.736   0.703   0.730   0.669   0.628   0.662   0.657   0.648   0.666   0.658   0.646   0.708   0.695   0.668   0.640   0.672   0.629   0.644   0.674   0.680   0.692   0.705   0.739   0.751   0.757   0.730   0.724   0.692   0.705   0.716   0.745   0.728   0.726   0.709   0.696   0.711   0.725   0.761   0.833   0.819   0.867   0.866   0.807   0.807   0.815   0.809   0.798   0.771   0.768   0.783   0.755   0.795   0.803   0.817   0.852   0.787   0.758   0.715   0.754   0.763   0.709   0.739   0.748   0.806   0.762   0.734   0.720   0.696   0.747   0.775   0.757   0.704   0.695   0.732   0.716   0.754   0.705   0.716   0.815   0.823   0.888   0.886   0.840   0.780   0.798   0.776   0.788   0.772   0.733   0.697   0.733   0.724   0.731   0.700   0.731   0.758   0.728   0.786   0.767   0.794   0.808   0.776   0.730   0.758   0.711   0.657   0.677   0.709   0.683   0.700   0.708   0.722   0.761   0.785   0.772   0.728   0.717   0.728   0.754   0.710   0.722   0.704   0.681   0.668   0.657   0.658   0.752   0.724   0.736   0.704   0.688   0.672   0.727   0.774   0.747   0.772   0.790   0.831   0.809   0.805   0.783   0.781   0.764   0.740   0.731   0.718   0.691   0.716   0.714   0.735   0.701   0.611   0.680   0.696   0.718   0.671   0.637   0.672   0.701   0.662   0.649   0.631   0.648   0.677   0.676   0.745   0.745
    75.40    0.731   0.752   0.734   0.720   0.662   0.715   0.736   0.758   0.800   0.759   0.744   0.754   0.773   0.773   0.737   0.697   0.705   0.717   0.704   0.707   0.755   0.762   0.763   0.736   0.741   0.738   0.699   0.676   0.686   0.651   0.651   0.643   0.662   0.687   0.658   0.679   0.663   0.723   0.708   0.662   0.678   0.656   0.628   0.658   0.708   0.695   0.728   0.761   0.796   0.774   0.749   0.788   0.745   0.709   0.686   0.743   0.738   0.786   0.755   0.722   0.736   0.710   0.733   0.832   0.821   0.854   0.861   0.838   0.793   0.774   0.767   0.826   0.844   0.827   0.793   0.780   0.779   0.859   0.843   0.889   0.856   0.819   0.799   0.774   0.795   0.770   0.768   0.719   0.745   0.803   0.793   0.696   0.724   0.734   0.696   0.731   0.726   0.711   0.689   0.757   0.766   0.699   0.710   0.697   0.714   0.771   0.773   0.809   0.835   0.810   0.804   0.778   0.791   0.766   0.742   0.709   0.706   0.681   0.681   0.732   0.744   0.716   0.713   0.762   0.738   0.766   0.784   0.783   0.782   0.810   0.769   0.697   0.694   0.717   0.640   0.635   0.629   0.703   0.737   0.716   0.757   0.717   0.670   0.728   0.714   0.730   0.702   0.727   0.694   0.682   0.686   0.681   0.753   0.742   0.707   0.727   0.691   0.718   0.774   0.762   0.763   0.728   0.744   0.762   0.793   0.719   0.740   0.736   0.724   0.764   0.751   0.668   0.678   0.696   0.691   0.748   0.737   0.683   0.672   0.648   0.685   0.729   0.702   0.715   0.714   0.660   0.651   0.669   0.686   0.676   0.727   0.739   0.742
    66.10    0.698   0.708   0.705   0.728   0.718   0.712   0.730   0.766   0.804   0.742   0.719   0.721   0.722   0.726   0.687   0.661   0.667   0.703   0.669   0.648   0.633   0.705   0.755   0.748   0.744   0.732   0.724   0.663   0.671   0.603   0.620   0.584   0.626   0.698   0.697   0.716   0.715   0.745   0.697   0.704   0.680   0.668   0.675   0.671   0.753   0.702   0.742   0.731   0.743   0.757   0.781   0.769   0.775   0.736   0.731   0.775   0.753   0.787   0.753   0.758   0.767   0.757   0.782   0.823   0.819   0.861   0.858   0.848   0.786   0.762   0.716   0.781   0.822   0.852   0.814   0.776   0.788   0.816   0.811   0.875   0.868   0.790   0.797   0.729   0.801   0.745   0.791   0.802   0.739   0.783   0.732   0.717   0.722   0.737   0.705   0.686   0.668   0.678   0.708   0.745   0.749   0.710   0.716   0.686   0.687   0.702   0.715   0.742   0.767   0.817   0.808   0.768   0.726   0.719   0.741   0.713   0.679   0.643   0.683   0.708   0.719   0.776   0.770   0.757   0.713   0.736   0.767   0.755   0.813   0.807   0.735   0.722   0.639   0.640   0.606   0.628   0.579   0.665   0.649   0.709   0.710   0.708   0.738   0.716   0.726   0.741   0.735   0.702   0.713   0.687   0.678   0.668   0.717   0.762   0.763   0.729   0.698   0.734   0.754   0.747   0.798   0.726   0.729   0.747   0.725   0.706   0.670   0.687   0.712   0.726   0.719   0.724   0.748   0.687   0.715   0.747   0.759   0.694   0.637   0.616   0.664   0.665   0.696   0.740   0.710   0.662   0.651   0.656   0.674   0.646   0.691   0.703   0.719
    56.80    0.712   0.736   0.744   0.740   0.740   0.729   0.787   0.751   0.788   0.736   0.725   0.708   0.668   0.679   0.635   0.629   0.645   0.648   0.658   0.619   0.639   0.680   0.731   0.721   0.719   0.675   0.656   0.658   0.660   0.603   0.596   0.626   0.671   0.715   0.683   0.687   0.738   0.779   0.765   0.707   0.668   0.648   0.685   0.698   0.717   0.726   0.769   0.711   0.712   0.756   0.770   0.731   0.750   0.768   0.741   0.767   0.767   0.810   0.787   0.746   0.759   0.843   0.891   0.843   0.833   0.792   0.796   0.779   0.767   0.730   0.703   0.779   0.777   0.778   0.802   0.806   0.826   0.816   0.792   0.825   0.778   0.800   0.784   0.773   0.781   0.774   0.812   0.847   0.771   0.792   0.757   0.791   0.768   0.747   0.690   0.695   0.701   0.671   0.667   0.712   0.740   0.719   0.733   0.699   0.689   0.728   0.722   0.726   0.714   0.779   0.798   0.793   0.759   0.693   0.654   0.671   0.658   0.640   0.674   0.743   0.764   0.788   0.805   0.832   0.748   0.770   0.759   0.794   0.806   0.755   0.760   0.691   0.669   0.634   0.619   0.635   0.627   0.630   0.642   0.640   0.688   0.678   0.693   0.748   0.693   0.728   0.762   0.725   0.712   0.710   0.707   0.663   0.701   0.767   0.785   0.774   0.743   0.742   0.710   0.702   0.738   0.723   0.727   0.739   0.710   0.696   0.698   0.679   0.729   0.712   0.745   0.752   0.736   0.698   0.704   0.765   0.742   0.698   0.619   0.595   0.673   0.691   0.723   0.718   0.685   0.660   0.581   0.633   0.709   0.701   0.688   0.672   0.696
    47.50    0.740   0.722   0.746   0.782   0.756   0.782   0.778   0.744   0.752   0.743   0.705   0.671   0.684   0.648   0.597   0.618   0.646   0.605   0.627   0.623   0.655   0.680   0.683   0.734   0.716   0.671   0.657   0.663   0.642   0.654   0.639   0.636   0.681   0.689   0.642   0.667   0.677   0.697   0.680   0.665   0.631   0.653   0.721   0.703   0.719   0.779   0.686   0.678   0.719   0.745   0.743   0.782   0.788   0.720   0.700   0.758   0.751   0.764   0.758   0.719   0.724   0.785   0.847   0.862   0.877   0.815   0.798   0.771   0.728   0.742   0.769   0.815   0.780   0.816   0.867   0.823   0.827   0.792   0.801   0.790   0.812   0.806   0.796   0.811   0.817   0.838   0.846   0.814   0.813   0.784   0.772   0.738   0.760   0.677   0.699   0.691   0.692   0.655   0.670   0.708   0.730   0.710   0.773   0.743   0.718   0.720   0.681   0.721   0.729   0.782   0.705   0.744   0.721   0.712   0.688   0.681   0.671   0.673   0.674   0.739   0.805   0.849   0.839   0.835   0.792   0.810   0.732   0.723   0.766   0.752   0.743   0.705   0.702   0.697   0.653   0.612   0.635   0.667   0.663   0.657   0.661   0.675   0.674   0.703   0.719   0.701   0.750   0.710   0.680   0.710   0.688   0.722   0.714   0.774   0.769   0.755   0.742   0.684   0.725   0.702   0.681   0.746   0.738   0.668   0.671   0.663   0.699   0.709   0.742   0.750   0.755   0.770   0.738   0.704   0.668   0.736   0.751   0.705   0.615   0.636   0.677   0.669   0.735   0.761   0.704   0.664   0.608   0.614   0.674   0.687   0.669   0.718   0.677
    38.20    0.722   0.746   0.736   0.752   0.717   0.748   0.763   0.785   0.672   0.692   0.720   0.745   0.695   0.647   0.642   0.643   0.700   0.626   0.610   0.571   0.624   0.644   0.656   0.692   0.734   0.729   0.714   0.675   0.685   0.678   0.646   0.620   0.661   0.665   0.653   0.653   0.652   0.662   0.611   0.638   0.681   0.657   0.738   0.740   0.723   0.747   0.746   0.729   0.745   0.758   0.788   0.807   0.834   0.786   0.763   0.748   0.704   0.781   0.750   0.771   0.784   0.742   0.808   0.823   0.832   0.809   0.744   0.737   0.748   0.704   0.768   0.776   0.831   0.868   0.895   0.848   0.843   0.801   0.817   0.791   0.801   0.815   0.798   0.839   0.865   0.910   0.895   0.865   0.829   0.782   0.766   0.734   0.725   0.688   0.645   0.668   0.672   0.692   0.701   0.739   0.713   0.745   0.764   0.716   0.660   0.706   0.700   0.703   0.721   0.710   0.724   0.711   0.683   0.724   0.731   0.740   0.728   0.705   0.701   0.752   0.858   0.893   0.865   0.864   0.838   0.779   0.724   0.665   0.701   0.677   0.682   0.686   0.712   0.690   0.650   0.642   0.685   0.658   0.659   0.640   0.649   0.690   0.687   0.723   0.767   0.758   0.723   0.685   0.657   0.668   0.671   0.662   0.675   0.735   0.728   0.696   0.685   0.693   0.723   0.696   0.685   0.720   0.724   0.710   0.726   0.678   0.725   0.703   0.733   0.701   0.724   0.759   0.724   0.666   0.687   0.715   0.741   0.685   0.637   0.644   0.681   0.734   0.698   0.672   0.623   0.623   0.587   0.647   0.624   0.664   0.716   0.701   0.678
    28.90    0.713   0.689   0.696   0.697   0.701   0.754   0.731   0.753   0.689   0.739   0.724   0.697   0.703   0.645   0.658   0.677   0.666   0.646   0.642   0.618   0.632   0.678   0.666   0.680   0.713   0.734   0.727   0.697   0.694   0.645   0.625   0.593   0.647   0.638   0.658   0.655   0.670   0.665   0.610   0.658   0.681   0.682   0.704   0.724   0.755   0.735   0.694   0.697   0.700   0.744   0.810   0.846   0.813   0.775   0.744   0.710   0.726   0.758   0.754   0.731   0.709   0.755   0.774   0.780   0.766   0.734   0.759   0.743   0.726   0.725   0.765   0.820   0.877   0.885   0.879   0.828   0.875   0.820   0.810   0.806   0.869   0.865   0.817   0.844   0.857   0.929   0.937   0.889   0.875   0.822   0.721   0.647   0.673   0.635   0.668   0.706   0.713   0.684   0.700   0.702   0.746   0.700   0.709   0.709   0.716   0.696   0.733   0.716   0.679   0.731   0.706   0.718   0.724   0.781   0.777   0.793   0.809   0.784   0.761   0.814   0.855   0.892   0.890   0.922   0.842   0.759   0.700   0.693   0.646   0.609   0.675   0.696   0.689   0.666   0.635   0.637   0.647   0.643   0.636   0.621   0.628   0.644   0.689   0.694   0.716   0.704   0.687   0.679   0.648   0.660   0.678   0.630   0.671   0.659   0.706   0.679   0.665   0.685   0.716   0.733   0.706   0.769   0.781   0.800   0.720   0.721   0.760   0.690   0.723   0.705   0.718   0.737   0.756   0.678   0.666   0.700   0.690   0.657   0.632   0.692   0.671   0.698   0.679   0.695   0.653   0.609   0.621   0.623   0.624   0.665   0.732   0.671   0.650
    19.60    0.713   0.745   0.697   0.722   0.728   0.758   0.731   0.748   0.769   0.752   0.705   0.680   0.665   0.637   0.670   0.718   0.731   0.688   0.661   0.659   0.663   0.693   0.695   0.649   0.655   0.710   0.720   0.722   0.658   0.634   0.598   0.635   0.595   0.629   0.632   0.718   0.679   0.675   0.640   0.624   0.677   0.671   0.649   0.697   0.763   0.716   0.718   0.716   0.712   0.710   0.792   0.813   0.797   0.769   0.770   0.724   0.709   0.738   0.710   0.701   0.706   0.742   0.739   0.800   0.740   0.710   0.710   0.735   0.766   0.779   0.830   0.863   0.879   0.848   0.873   0.884   0.874   0.846   0.798   0.852   0.835   0.851   0.901   0.904   0.923   0.938   0.942   0.953   0.952   0.881   0.795   0.734   0.692   0.630   0.648   0.704   0.686   0.711   0.757   0.723   0.737   0.757   0.745   0.766   0.822   0.746   0.765   0.701   0.664   0.680   0.699   0.748   0.780   0.806   0.801   0.766   0.778   0.827   0.793   0.825   0.834   0.851   0.876   0.882   0.829   0.769   0.734   0.694   0.685   0.654   0.669   0.673   0.703   0.684   0.643   0.671   0.643   0.682   0.641   0.616   0.605   0.634   0.640   0.711   0.716   0.669   0.676   0.676   0.652   0.646   0.635   0.664   0.682   0.665   0.666   0.684   0.667   0.717   0.688   0.712   0.740   0.793   0.768   0.743   0.722   0.762   0.773   0.723   0.713   0.688   0.663   0.719   0.689   0.758   0.718   0.663   0.639   0.718   0.680   0.677   0.666   0.656   0.643   0.645   0.647   0.633   0.667   0.695   0.709   0.716   0.720   0.676   0.677
    10.30    0.701   0.731   0.710   0.740   0.746   0.779   0.762   0.755   0.745   0.773   0.712   0.722   0.704   0.644   0.705   0.735   0.747   0.711   0.679   0.754   0.725   0.733   0.694   0.703   0.728   0.684   0.710   0.678   0.632   0.623   0.603   0.605   0.634   0.678   0.653   0.667   0.750   0.674   0.635   0.651   0.661   0.638   0.671   0.679   0.707   0.743   0.710   0.753   0.709   0.733   0.776   0.796   0.742   0.788   0.800   0.758   0.747   0.702   0.734   0.758   0.715   0.723   0.756   0.774   0.793   0.773   0.784   0.802   0.856   0.863   0.874   0.865   0.902   0.826   0.890   0.912   0.851   0.771   0.781   0.830   0.834   0.859   0.861   0.917   0.978   0.986   1.022   0.953   0.982   0.913   0.846   0.835   0.730   0.712   0.671   0.738   0.717   0.725   0.731   0.767   0.714   0.731   0.713   0.726   0.749   0.736   0.723   0.697   0.683   0.742   0.751   0.730   0.830   0.834   0.838   0.777   0.803   0.774   0.804   0.843   0.803   0.784   0.826   0.824   0.844   0.765   0.751   0.690   0.696   0.658   0.708   0.697   0.701   0.683   0.619   0.614   0.638   0.640   0.639   0.617   0.638   0.665   0.601   0.660   0.664   0.653   0.681   0.668   0.688   0.644   0.657   0.678   0.715   0.672   0.663   0.652   0.671   0.661   0.677   0.673   0.736   0.786   0.795   0.726   0.754   0.778   0.771   0.794   0.697   0.668   0.678   0.698   0.710   0.735   0.697   0.679   0.657   0.684   0.704   0.689   0.663   0.645   0.623   0.677   0.618   0.636   0.603   0.640   0.689   0.752   0.733   0.721   0.721
     1.00    0.716   0.732   0.651   0.725   0.797   0.727   0.760   0.712   0.736   0.709   0.699   0.731   0.716   0.749   0.710   0.725   0.754   0.740   0.727   0.725   0.741   0.682   0.727   0.737   0.738   0.705   0.672   0.694   0.654   0.638   0.620   0.637   0.627   0.674   0.667   0.693   0.736   0.707   0.661   0.683   0.631   0.684   0.660   0.718   0.716   0.688   0.690   0.737   0.702   0.700   0.735   0.731   0.728   0.764   0.762   0.773   0.705   0.739   0.749   0.716   0.743   0.767   0.748   0.795   0.807   0.804   0.821   0.830   0.897   0.861   0.862   0.848   0.864   0.821   0.879   0.865   0.807   0.792   0.821   0.873   0.828   0.888   0.904   0.923   0.969   0.993   0.969   0.972   0.909   0.942   0.879   0.818   0.798   0.715   0.674   0.739   0.753   0.747   0.723   0.720   0.736   0.775   0.747   0.773   0.744   0.720   0.682   0.697   0.719   0.746   0.734   0.766   0.750   0.791   0.771   0.803   0.841   0.812   0.826   0.793   0.773   0.758   0.796   0.813   0.790   0.742   0.699   0.732   0.704   0.692   0.672   0.618   0.666   0.664   0.605   0.636   0.621   0.607   0.621   0.626   0.667   0.693   0.634   0.661   0.707   0.668   0.705   0.690   0.680   0.676   0.696   0.676   0.736   0.677   0.681   0.648   0.675   0.646   0.659   0.716   0.728   0.781   0.795   0.791   0.753   0.771   0.781   0.777   0.728   0.688   0.640   0.690   0.693   0.700   0.699   0.718   0.693   0.722   0.702   0.637   0.673   0.658   0.659   0.634   0.632   0.635   0.657   0.668   0.685   0.703   0.708   0.687   0.613

   Height   Standard deviation at grid points for the v component:
   354.40    0.592   0.597   0.621   0.585   0.617   0.620   0.592   0.592   0.573   0.586   0.619   0.600   0.610   0.625   0.634   0.645   0.633   0.596   0.553   0.562   0.554   0.510   0.545   0.549   0.546   0.590   0.615   0.609   0.591   0.603   0.594   0.582   0.577   0.576   0.573   0.594   0.569   0.557   0.565   0.552   0.538   0.581   0.577   0.606   0.612   0.600   0.601   0.592   0.587   0.586   0.597   0.589   0.587   0.573   0.576   0.578   0.575   0.600   0.587   0.622   0.665   0.666   0.667   0.649   0.618   0.610   0.627   0.623   0.617   0.584   0.586   0.570   0.617   0.597   0.650   0.638   0.632   0.603   0.604   0.610   0.547   0.573   0.547   0.538   0.553   0.576   0.610   0.597   0.596   0.596   0.574   0.561   0.562   0.511   0.497   0.515   0.537   0.552   0.539   0.571   0.581   0.588   0.583   0.559   0.576   0.551   0.542   0.564   0.584   0.582   0.606   0.584   0.580   0.577   0.554   0.578   0.578   0.561   0.550   0.556   0.544   0.536   0.537   0.504   0.538   0.562   0.559   0.539   0.542   0.554   0.560   0.548   0.542   0.598   0.620   0.639   0.613   0.599   0.584   0.555   0.583   0.594   0.583   0.632   0.606   0.627   0.664   0.685   0.652   0.609   0.619   0.646   0.657   0.646   0.616   0.624   0.612   0.594   0.623   0.603   0.640   0.605   0.605   0.592   0.598   0.587   0.584   0.553   0.560   0.563   0.538   0.518   0.565   0.541   0.540   0.543   0.546   0.548   0.553   0.550   0.569   0.565   0.585   0.564   0.566   0.576   0.547   0.540   0.530   0.526   0.539   0.540   0.577
   345.10    0.582   0.575   0.552   0.556   0.601   0.613   0.585   0.559   0.566   0.585   0.588   0.591   0.609   0.596   0.623   0.595   0.604   0.580   0.541   0.563   0.543   0.538   0.518   0.530   0.542   0.573   0.601   0.612   0.620   0.609   0.592   0.593   0.617   0.610   0.572   0.571   0.583   0.518   0.568   0.558   0.563   0.614   0.604   0.596   0.614   0.605   0.589   0.578   0.569   0.605   0.603   0.570   0.595   0.592   0.561   0.579   0.573   0.567   0.599   0.633   0.638   0.624   0.646   0.684   0.671   0.615   0.606   0.623   0.603   0.578   0.577   0.599   0.595   0.600   0.603   0.615   0.607   0.611   0.602   0.603   0.578   0.528   0.540   0.533   0.559   0.577   0.600   0.619   0.610   0.595   0.561   0.568   0.532   0.501   0.514   0.537   0.557   0.569   0.547   0.566   0.582   0.586   0.573   0.602   0.557   0.572   0.543   0.579   0.584   0.578   0.598   0.596   0.598   0.570   0.572   0.586   0.574   0.543   0.555   0.558   0.533   0.520   0.523   0.516   0.537   0.559   0.570   0.570   0.571   0.562   0.543   0.534   0.571   0.590   0.593   0.615   0.603   0.603   0.587   0.575   0.578   0.594   0.604   0.615   0.614   0.633   0.660   0.670   0.616   0.645   0.653   0.661   0.660   0.676   0.621   0.620   0.598   0.578   0.603   0.603   0.622   0.599   0.618   0.617   0.630   0.593   0.576   0.547   0.538   0.558   0.546   0.532   0.557   0.571   0.573   0.568   0.563   0.530   0.535   0.558   0.568   0.590   0.588   0.546   0.555   0.565   0.568   0.565   0.555   0.546   0.525   0.555   0.574
   335.80    0.577   0.563   0.534   0.574   0.551   0.584   0.578   0.558   0.547   0.550   0.544   0.560   0.566   0.585   0.583   0.580   0.583   0.587   0.580   0.564   0.556   0.547   0.517   0.556   0.560   0.574   0.598   0.592   0.596   0.613   0.628   0.604   0.622   0.595   0.584   0.585   0.563   0.559   0.579   0.567   0.575   0.616   0.588   0.576   0.606   0.621   0.602   0.591   0.603   0.571   0.575   0.582   0.568   0.587   0.576   0.565   0.561   0.526   0.578   0.630   0.625   0.645   0.680   0.649   0.675   0.633   0.615   0.577   0.575   0.564   0.597   0.606   0.612   0.588   0.611   0.633   0.606   0.625   0.606   0.597   0.586   0.543   0.521   0.519   0.556   0.570   0.577   0.586   0.582   0.575   0.575   0.541   0.532   0.489   0.521   0.541   0.572   0.554   0.573   0.586   0.599   0.547   0.571   0.601   0.572   0.599   0.598   0.585   0.568   0.586   0.612   0.579   0.578   0.583   0.595   0.574   0.575   0.547   0.544   0.549   0.515   0.532   0.542   0.554   0.523   0.535   0.569   0.569   0.560   0.582   0.558   0.560   0.568   0.575   0.574   0.585   0.602   0.597   0.556   0.555   0.561   0.578   0.579   0.585   0.615   0.613   0.636   0.648   0.618   0.662   0.685   0.638   0.657   0.617   0.610   0.630   0.589   0.591   0.599   0.590   0.592   0.601   0.601   0.609   0.615   0.562   0.570   0.546   0.542   0.551   0.549   0.565   0.569   0.564   0.551   0.531   0.558   0.544   0.550   0.570   0.567   0.580   0.557   0.552   0.556   0.570   0.578   0.574   0.573   0.545   0.525   0.561   0.565
   326.50    0.587   0.540   0.550   0.572   0.575   0.591   0.571   0.565   0.557   0.522   0.543   0.552   0.546   0.560   0.606   0.589   0.599   0.611   0.562   0.563   0.581   0.548   0.541   0.548   0.540   0.577   0.576   0.606   0.612   0.575   0.602   0.639   0.634   0.609   0.575   0.567   0.584   0.576   0.565   0.541   0.593   0.628   0.598   0.608   0.585   0.618   0.623   0.611   0.588   0.561   0.561   0.565   0.582   0.570   0.554   0.583   0.582   0.524   0.551   0.592   0.639   0.657   0.629   0.634   0.629   0.638   0.621   0.605   0.599   0.612   0.574   0.579   0.585   0.592   0.597   0.612   0.634   0.600   0.630   0.597   0.602   0.592   0.563   0.555   0.549   0.539   0.552   0.575   0.579   0.574   0.543   0.549   0.564   0.511   0.533   0.542   0.567   0.578   0.590   0.602   0.579   0.568   0.535   0.545   0.565   0.599   0.582   0.612   0.578   0.569   0.573   0.586   0.619   0.625   0.610   0.588   0.570   0.543   0.564   0.545   0.537   0.539   0.540   0.539   0.538   0.520   0.531   0.513   0.545   0.543   0.556   0.569   0.554   0.556   0.580   0.597   0.595   0.559   0.571   0.583   0.586   0.598   0.567   0.591   0.621   0.653   0.672   0.646   0.644   0.656   0.645   0.657   0.619   0.626   0.595   0.613   0.578   0.596   0.587   0.579   0.578   0.595   0.579   0.587   0.569   0.540   0.551   0.554   0.560   0.544   0.543   0.568   0.553   0.553   0.580   0.554   0.577   0.575   0.584   0.576   0.566   0.590   0.572   0.570   0.567   0.593   0.559   0.569   0.562   0.548   0.549   0.557   0.571
[...]
   103.30    0.355   0.348   0.336   0.347   0.349   0.346   0.346   0.352   0.345   0.345   0.356   0.368   0.360   0.353   0.356   0.359   0.348   0.345   0.337   0.347   0.352   0.344   0.344   0.352   0.349   0.363   0.358   0.354   0.359   0.365   0.367   0.348   0.358   0.345   0.345   0.346   0.342   0.341   0.353   0.362   0.356   0.377   0.387   0.366   0.349   0.363   0.354   0.344   0.342   0.344   0.345   0.350   0.357   0.347   0.334   0.346   0.355   0.347   0.345   0.354   0.353   0.342   0.347   0.353   0.361   0.358   0.356   0.356   0.358   0.349   0.347   0.340   0.344   0.355   0.355   0.346   0.341   0.368   0.366   0.366   0.368   0.369   0.354   0.349   0.353   0.352   0.363   0.360   0.360   0.364   0.360   0.373   0.376   0.368   0.359   0.358   0.351   0.352   0.371   0.379   0.379   0.372   0.364   0.362   0.367   0.363   0.365   0.362   0.357   0.354   0.345   0.356   0.353   0.350   0.349   0.349   0.355   0.360   0.356   0.365   0.360   0.358   0.341   0.364   0.351   0.349   0.368   0.367   0.362   0.363   0.365   0.373   0.370   0.355   0.364   0.368   0.365   0.374   0.358   0.353   0.341   0.349   0.355   0.348   0.348   0.357   0.352   0.342   0.339   0.352   0.351   0.356   0.359   0.353   0.350   0.351   0.348   0.334   0.339   0.346   0.366   0.366   0.368   0.363   0.356   0.359   0.368   0.373   0.361   0.352   0.351   0.378   0.357   0.352   0.363   0.359   0.370   0.364   0.356   0.356   0.350   0.358   0.370   0.354   0.365   0.357   0.346   0.358   0.366   0.365   0.370   0.348   0.344
    94.00    0.353   0.346   0.336   0.349   0.353   0.354   0.352   0.347   0.347   0.341   0.361   0.357   0.353   0.362   0.372   0.363   0.358   0.353   0.349   0.346   0.345   0.344   0.340   0.344   0.351   0.358   0.350   0.340   0.339   0.349   0.351   0.339   0.354   0.357   0.353   0.350   0.343   0.351   0.367   0.366   0.367   0.379   0.375   0.369   0.349   0.360   0.350   0.347   0.355   0.348   0.352   0.350   0.354   0.360   0.343   0.350   0.356   0.348   0.348   0.351   0.349   0.355   0.349   0.349   0.357   0.360   0.349   0.347   0.356   0.359   0.353   0.342   0.346   0.341   0.358   0.347   0.363   0.370   0.363   0.368   0.375   0.373   0.345   0.352   0.356   0.356   0.359   0.361   0.351   0.354   0.342   0.365   0.361   0.356   0.357   0.350   0.346   0.353   0.361   0.367   0.365   0.364   0.353   0.367   0.369   0.366   0.360   0.355   0.349   0.356   0.359   0.351   0.353   0.351   0.345   0.350   0.353   0.351   0.363   0.363   0.362   0.347   0.358   0.352   0.351   0.359   0.364   0.367   0.368   0.365   0.359   0.360   0.357   0.357   0.364   0.367   0.370   0.368   0.377   0.372   0.357   0.354   0.352   0.352   0.357   0.348   0.349   0.348   0.350   0.356   0.369   0.352   0.350   0.355   0.350   0.349   0.351   0.354   0.351   0.354   0.366   0.365   0.355   0.359   0.376   0.358   0.380   0.362   0.359   0.358   0.370   0.364   0.361   0.356   0.355   0.359   0.372   0.359   0.355   0.358   0.363   0.366   0.367   0.365   0.362   0.376   0.377   0.368   0.354   0.357   0.361   0.348   0.355
    84.70    0.340   0.337   0.341   0.344   0.352   0.347   0.347   0.348   0.336   0.349   0.361   0.361   0.364   0.359   0.351   0.352   0.359   0.341   0.345   0.340   0.351   0.342   0.334   0.345   0.344   0.349   0.352   0.363   0.354   0.344   0.351   0.350   0.347   0.357   0.353   0.362   0.358   0.353   0.357   0.358   0.358   0.372   0.369   0.361   0.362   0.365   0.357   0.356   0.349   0.351   0.350   0.356   0.356   0.349   0.350   0.348   0.348   0.335   0.341   0.350   0.359   0.359   0.352   0.350   0.355   0.356   0.350   0.347   0.351   0.355   0.358   0.346   0.354   0.334   0.351   0.355   0.368   0.377   0.371   0.371   0.374   0.377   0.368   0.357   0.354   0.378   0.358   0.365   0.351   0.338   0.326   0.349   0.346   0.346   0.356   0.363   0.353   0.353   0.360   0.368   0.365   0.367   0.361   0.359   0.370   0.364   0.352   0.347   0.337   0.355   0.351   0.349   0.352   0.355   0.351   0.343   0.343   0.346   0.359   0.366   0.369   0.350   0.350   0.355   0.352   0.349   0.363   0.379   0.368   0.360   0.358   0.353   0.365   0.373   0.364   0.365   0.374   0.372   0.381   0.366   0.362   0.351   0.352   0.348   0.348   0.362   0.350   0.351   0.351   0.365   0.354   0.358   0.346   0.355   0.356   0.361   0.353   0.361   0.359   0.356   0.365   0.357   0.364   0.360   0.361   0.363   0.371   0.373   0.352   0.361   0.364   0.357   0.357   0.351   0.348   0.354   0.351   0.363   0.363   0.350   0.368   0.362   0.365   0.363   0.363   0.368   0.374   0.368   0.359   0.361   0.354   0.346   0.359
    75.40    0.345   0.340   0.344   0.352   0.354   0.360   0.355   0.349   0.349   0.365   0.357   0.363   0.351   0.367   0.345   0.346   0.356   0.336   0.341   0.340   0.341   0.344   0.335   0.332   0.352   0.347   0.357   0.366   0.361   0.356   0.352   0.361   0.352   0.361   0.372   0.364   0.361   0.362   0.353   0.349   0.353   0.364   0.369   0.370   0.365   0.353   0.362   0.367   0.363   0.355   0.340   0.340   0.339   0.343   0.344   0.336   0.342   0.349   0.335   0.345   0.352   0.360   0.352   0.346   0.340   0.338   0.363   0.355   0.348   0.349   0.345   0.351   0.353   0.342   0.354   0.356   0.371   0.376   0.374   0.374   0.373   0.378   0.385   0.368   0.366   0.369   0.364   0.357   0.348   0.338   0.338   0.349   0.357   0.362   0.351   0.353   0.353   0.358   0.357   0.362   0.353   0.338   0.361   0.369   0.359   0.368   0.361   0.361   0.350   0.355   0.359   0.348   0.349   0.361   0.355   0.341   0.341   0.362   0.366   0.362   0.356   0.356   0.358   0.366   0.364   0.366   0.363   0.371   0.368   0.369   0.369   0.361   0.357   0.364   0.364   0.371   0.375   0.373   0.368   0.354   0.369   0.372   0.358   0.347   0.349   0.347   0.366   0.373   0.355   0.353   0.344   0.354   0.357   0.356   0.350   0.356   0.355   0.357   0.354   0.370   0.358   0.363   0.370   0.373   0.358   0.362   0.371   0.364   0.361   0.366   0.373   0.353   0.346   0.348   0.345   0.347   0.347   0.349   0.353   0.356   0.368   0.363   0.367   0.381   0.370   0.374   0.372   0.364   0.362   0.355   0.360   0.349   0.348
    66.10    0.343   0.360   0.362   0.361   0.366   0.366   0.354   0.367   0.357   0.351   0.361   0.358   0.344   0.348   0.350   0.354   0.347   0.345   0.339   0.336   0.338   0.344   0.345   0.350   0.354   0.357   0.357   0.363   0.359   0.359   0.358   0.366   0.363   0.352   0.357   0.358   0.361   0.363   0.350   0.351   0.363   0.363   0.367   0.369   0.361   0.353   0.361   0.358   0.349   0.354   0.347   0.337   0.341   0.337   0.333   0.344   0.355   0.346   0.343   0.345   0.345   0.355   0.345   0.346   0.354   0.353   0.365   0.370   0.361   0.356   0.342   0.341   0.353   0.357   0.355   0.348   0.360   0.366   0.356   0.369   0.367   0.367   0.379   0.364   0.362   0.356   0.363   0.359   0.345   0.350   0.334   0.331   0.350   0.354   0.346   0.341   0.348   0.361   0.344   0.345   0.353   0.347   0.360   0.370   0.360   0.369   0.371   0.362   0.366   0.367   0.362   0.357   0.364   0.359   0.355   0.367   0.366   0.368   0.364   0.360   0.356   0.340   0.351   0.354   0.363   0.381   0.374   0.360   0.367   0.365   0.364   0.373   0.366   0.357   0.370   0.380   0.379   0.368   0.358   0.364   0.365   0.359   0.360   0.348   0.350   0.357   0.366   0.367   0.363   0.353   0.352   0.351   0.352   0.342   0.343   0.338   0.358   0.351   0.354   0.359   0.373   0.379   0.373   0.358   0.354   0.358   0.375   0.366   0.369   0.374   0.358   0.365   0.360   0.352   0.362   0.363   0.350   0.348   0.354   0.361   0.358   0.357   0.370   0.381   0.377   0.373   0.367   0.365   0.360   0.359   0.360   0.356   0.349
    56.80    0.343   0.348   0.367   0.366   0.368   0.361   0.364   0.364   0.349   0.362   0.357   0.355   0.349   0.348   0.351   0.353   0.330   0.336   0.329   0.342   0.342   0.342   0.350   0.350   0.349   0.357   0.360   0.360   0.368   0.367   0.368   0.375   0.356   0.342   0.353   0.355   0.357   0.369   0.365   0.359   0.352   0.359   0.369   0.364   0.348   0.349   0.347   0.358   0.358   0.352   0.347   0.347   0.353   0.337   0.354   0.361   0.355   0.349   0.363   0.354   0.361   0.353   0.350   0.355   0.355   0.357   0.360   0.373   0.373   0.356   0.348   0.352   0.348   0.356   0.360   0.370   0.351   0.361   0.368   0.355   0.358   0.364   0.373   0.368   0.359   0.358   0.351   0.350   0.347   0.351   0.335   0.331   0.346   0.356   0.353   0.337   0.357   0.362   0.366   0.344   0.355   0.355   0.352   0.366   0.351   0.362   0.366   0.380   0.373   0.367   0.367   0.377   0.380   0.367   0.376   0.365   0.369   0.375   0.364   0.370   0.373   0.361   0.364   0.362   0.373   0.383   0.377   0.370   0.357   0.356   0.368   0.373   0.370   0.366   0.374   0.369   0.364   0.359   0.360   0.363   0.363   0.363   0.354   0.347   0.344   0.362   0.363   0.361   0.368   0.355   0.350   0.350   0.356   0.350   0.344   0.349   0.367   0.367   0.350   0.367   0.369   0.365   0.374   0.363   0.359   0.353   0.366   0.368   0.370   0.366   0.364   0.377   0.365   0.375   0.361   0.345   0.343   0.342   0.346   0.357   0.346   0.358   0.359   0.370   0.370   0.371   0.365   0.357   0.350   0.353   0.362   0.357   0.339
    47.50    0.354   0.353   0.358   0.358   0.358   0.360   0.355   0.358   0.345   0.355   0.362   0.348   0.349   0.357   0.356   0.348   0.350   0.348   0.341   0.347   0.348   0.350   0.350   0.345   0.345   0.349   0.345   0.357   0.378   0.381   0.369   0.361   0.372   0.374   0.363   0.352   0.355   0.375   0.379   0.366   0.350   0.362   0.357   0.344   0.337   0.345   0.357   0.353   0.363   0.358   0.352   0.352   0.347   0.358   0.359   0.358   0.353   0.354   0.360   0.357   0.376   0.354   0.357   0.355   0.365   0.357   0.356   0.352   0.350   0.360   0.352   0.348   0.351   0.355   0.365   0.367   0.353   0.353   0.360   0.367   0.360   0.362   0.357   0.360   0.350   0.354   0.346   0.348   0.348   0.343   0.334   0.356   0.339   0.352   0.350   0.337   0.329   0.355   0.351   0.352   0.349   0.357   0.361   0.352   0.356   0.363   0.374   0.372   0.364   0.365   0.367   0.376   0.390   0.381   0.378   0.382   0.373   0.369   0.372   0.368   0.368   0.365   0.367   0.361   0.363   0.381   0.374   0.366   0.356   0.360   0.355   0.366   0.371   0.360   0.364   0.358   0.361   0.353   0.353   0.355   0.363   0.365   0.368   0.360   0.364   0.375   0.362   0.362   0.370   0.343   0.345   0.353   0.344   0.359   0.365   0.358   0.369   0.368   0.373   0.369   0.364   0.358   0.375   0.366   0.360   0.358   0.375   0.373   0.372   0.374   0.358   0.358   0.373   0.363   0.357   0.356   0.347   0.346   0.346   0.354   0.362   0.359   0.344   0.351   0.358   0.359   0.354   0.365   0.346   0.347   0.342   0.341   0.347
    38.20    0.356   0.351   0.359   0.353   0.372   0.370   0.359   0.353   0.354   0.360   0.354   0.354   0.354   0.353   0.347   0.347   0.346   0.343   0.359   0.349   0.339   0.336   0.351   0.344   0.349   0.359   0.350   0.353   0.371   0.377   0.373   0.361   0.363   0.355   0.357   0.348   0.345   0.366   0.367   0.359   0.352   0.356   0.354   0.338   0.347   0.357   0.365   0.366   0.360   0.355   0.347   0.340   0.352   0.361   0.361   0.358   0.355   0.361   0.356   0.356   0.365   0.357   0.354   0.356   0.357   0.359   0.360   0.353   0.358   0.360   0.342   0.353   0.343   0.343   0.353   0.354   0.340   0.353   0.354   0.361   0.353   0.347   0.345   0.347   0.353   0.353   0.352   0.357   0.345   0.344   0.337   0.339   0.333   0.334   0.339   0.342   0.345   0.353   0.342   0.333   0.343   0.338   0.344   0.348   0.353   0.366   0.364   0.354   0.346   0.359   0.381   0.372   0.371   0.384   0.370   0.375   0.376   0.377   0.371   0.362   0.363   0.367   0.351   0.363   0.380   0.375   0.365   0.371   0.357   0.361   0.358   0.362   0.366   0.364   0.364   0.366   0.365   0.349   0.353   0.367   0.369   0.364   0.366   0.355   0.367   0.369   0.359   0.360   0.348   0.342   0.350   0.350   0.349   0.348   0.359   0.363   0.364   0.368   0.362   0.366   0.364   0.369   0.377   0.376   0.360   0.366   0.368   0.367   0.378   0.364   0.364   0.367   0.359   0.366   0.367   0.355   0.356   0.347   0.351   0.347   0.352   0.348   0.344   0.358   0.358   0.355   0.350   0.355   0.354   0.335   0.344   0.345   0.344
    28.90    0.355   0.358   0.359   0.362   0.369   0.371   0.362   0.358   0.350   0.345   0.361   0.352   0.346   0.345   0.355   0.326   0.342   0.347   0.348   0.356   0.344   0.339   0.350   0.347   0.345   0.365   0.364   0.358   0.365   0.373   0.370   0.354   0.356   0.354   0.349   0.336   0.349   0.363   0.351   0.353   0.344   0.340   0.353   0.353   0.359   0.361   0.372   0.365   0.358   0.363   0.350   0.340   0.345   0.358   0.362   0.353   0.353   0.370   0.360   0.364   0.362   0.363   0.351   0.354   0.340   0.345   0.340   0.352   0.363   0.351   0.353   0.345   0.338   0.357   0.348   0.348   0.347   0.355   0.354   0.356   0.361   0.354   0.350   0.345   0.356   0.359   0.354   0.346   0.337   0.343   0.349   0.349   0.330   0.333   0.340   0.341   0.349   0.340   0.335   0.345   0.348   0.350   0.348   0.343   0.359   0.355   0.359   0.348   0.361   0.374   0.372   0.366   0.379   0.374   0.371   0.376   0.371   0.383   0.374   0.358   0.373   0.356   0.363   0.369   0.371   0.382   0.378   0.379   0.370   0.376   0.364   0.365   0.379   0.369   0.364   0.376   0.359   0.365   0.374   0.372   0.359   0.361   0.364   0.359   0.357   0.365   0.374   0.362   0.353   0.353   0.344   0.356   0.359   0.340   0.358   0.357   0.362   0.365   0.365   0.354   0.364   0.365   0.363   0.359   0.361   0.363   0.368   0.367   0.369   0.369   0.370   0.363   0.366   0.367   0.372   0.355   0.355   0.350   0.349   0.346   0.342   0.357   0.362   0.360   0.350   0.342   0.342   0.350   0.339   0.339   0.354   0.341   0.346
    19.60    0.366   0.362   0.368   0.369   0.369   0.366   0.361   0.356   0.349   0.361   0.366   0.363   0.353   0.347   0.353   0.350   0.346   0.339   0.350   0.354   0.347   0.354   0.353   0.353   0.350   0.363   0.372   0.373   0.376   0.378   0.382   0.373   0.356   0.354   0.333   0.326   0.340   0.362   0.353   0.355   0.347   0.348   0.350   0.353   0.353   0.360   0.354   0.357   0.359   0.360   0.357   0.362   0.363   0.366   0.359   0.359   0.365   0.373   0.375   0.367   0.369   0.364   0.352   0.346   0.348   0.343   0.347   0.346   0.341   0.354   0.343   0.350   0.356   0.355   0.357   0.339   0.355   0.347   0.343   0.347   0.357   0.343   0.347   0.360   0.363   0.362   0.351   0.342   0.340   0.332   0.344   0.343   0.342   0.339   0.340   0.337   0.345   0.334   0.340   0.351   0.365   0.362   0.352   0.356   0.362   0.347   0.349   0.350   0.357   0.359   0.359   0.357   0.369   0.369   0.376   0.379   0.381   0.375   0.371   0.372   0.357   0.359   0.369   0.370   0.374   0.368   0.371   0.385   0.364   0.369   0.383   0.371   0.365   0.374   0.382   0.372   0.374   0.361   0.366   0.363   0.357   0.356   0.353   0.355   0.349   0.368   0.367   0.353   0.352   0.355   0.355   0.356   0.357   0.352   0.349   0.362   0.359   0.356   0.360   0.354   0.349   0.352   0.353   0.360   0.363   0.358   0.366   0.362   0.376   0.376   0.371   0.375   0.382   0.379   0.368   0.361   0.367   0.355   0.347   0.342   0.348   0.357   0.351   0.350   0.361   0.352   0.348   0.348   0.340   0.336   0.335   0.340   0.352
    10.30    0.373   0.364   0.360   0.359   0.365   0.351   0.355   0.358   0.350   0.349   0.354   0.353   0.349   0.350   0.358   0.355   0.359   0.352   0.350   0.348   0.341   0.344   0.349   0.369   0.353   0.365   0.367   0.373   0.380   0.369   0.375   0.364   0.349   0.328   0.335   0.335   0.347   0.353   0.355   0.350   0.360   0.355   0.348   0.353   0.342   0.350   0.347   0.357   0.365   0.358   0.354   0.364   0.361   0.362   0.362   0.358   0.359   0.368   0.370   0.386   0.368   0.355   0.369   0.359   0.350   0.337   0.344   0.348   0.356   0.354   0.352   0.362   0.358   0.355   0.353   0.346   0.341   0.355   0.352   0.343   0.356   0.350   0.342   0.363   0.361   0.357   0.357   0.350   0.345   0.346   0.341   0.331   0.340   0.340   0.339   0.345   0.335   0.342   0.356   0.355   0.370   0.361   0.350   0.356   0.367   0.354   0.342   0.343   0.346   0.352   0.363   0.368   0.353   0.375   0.384   0.391   0.381   0.364   0.371   0.369   0.366   0.362   0.359   0.371   0.371   0.369   0.372   0.372   0.381   0.375   0.369   0.373   0.380   0.374   0.374   0.376   0.365   0.349   0.356   0.363   0.361   0.357   0.354   0.352   0.355   0.362   0.357   0.345   0.354   0.357   0.357   0.341   0.348   0.351   0.355   0.350   0.348   0.356   0.362   0.375   0.357   0.347   0.350   0.356   0.360   0.368   0.360   0.363   0.365   0.369   0.380   0.384   0.383   0.390   0.379   0.362   0.361   0.348   0.339   0.341   0.350   0.351   0.351   0.343   0.343   0.351   0.364   0.346   0.338   0.346   0.350   0.351   0.357
     1.00    0.356   0.354   0.346   0.348   0.354   0.353   0.350   0.349   0.348   0.353   0.360   0.351   0.360   0.359   0.354   0.339   0.350   0.346   0.345   0.339   0.339   0.343   0.358   0.353   0.358   0.364   0.366   0.372   0.370   0.361   0.358   0.353   0.346   0.336   0.328   0.347   0.352   0.348   0.355   0.345   0.339   0.342   0.349   0.344   0.353   0.348   0.345   0.365   0.344   0.355   0.347   0.347   0.355   0.361   0.357   0.368   0.354   0.360   0.364   0.360   0.360   0.365   0.357   0.365   0.346   0.335   0.342   0.337   0.352   0.360   0.353   0.360   0.355   0.359   0.346   0.345   0.347   0.357   0.351   0.354   0.354   0.361   0.345   0.356   0.365   0.357   0.354   0.339   0.338   0.351   0.353   0.349   0.346   0.342   0.337   0.338   0.341   0.347   0.351   0.357   0.366   0.361   0.351   0.358   0.363   0.363   0.345   0.347   0.346   0.361   0.367   0.366   0.366   0.382   0.381   0.386   0.377   0.369   0.363   0.364   0.356   0.359   0.363   0.360   0.374   0.378   0.376   0.377   0.376   0.382   0.380   0.374   0.365   0.373   0.366   0.366   0.353   0.360   0.359   0.353   0.361   0.353   0.351   0.340   0.348   0.352   0.345   0.356   0.349   0.345   0.354   0.345   0.348   0.351   0.354   0.351   0.361   0.361   0.351   0.359   0.371   0.361   0.361   0.366   0.356   0.359   0.354   0.356   0.360   0.365   0.381   0.373   0.376   0.379   0.384   0.367   0.361   0.357   0.348   0.342   0.348   0.345   0.351   0.345   0.346   0.360   0.361   0.354   0.359   0.364   0.357   0.348   0.351

   Mean standard deviation across all grid points:
      u component:    0.731 m/s
      v component:    0.575 m/s
      w component:    0.355 m/s


U-component (X) statistics from the interpolated hub point:

   Mean =   9.7063 m/s
   TI   =   7.9212 %


Processing complete.  2.13780E+05 CPU seconds used.
