
This summary file was generated by TurbSim (from OpenFAST-v3.5.3) on 20-Apr-2025 at 08:17:28.


Runtime Options:

**********  Random seed #1
    RANLUX  Type of random number generator
         F  Output binary HH turbulence parameters?
         F  Output formatted turbulence parameters?
         F  Output AeroDyn HH files?
         T  Output AeroDyn FF files?
         F  Output BLADED FF files?
         F  Output tower data?
         F  Output HAWC FF files?
         F  Output formatted FF files?
         T  Output coherent turbulence time step file?
 0 -  NONE  IEC turbulence models scaled to exact specified standard deviation


Turbine/Model Specifications:

        37  Vertical grid-point matrix dimension
        35  Horizontal grid-point matrix dimension
     0.250  Time step [seconds]
   900.000  Analysis time [seconds]
   900.000  Usable output time [seconds]
    89.350  Hub height [m]
   167.400  Grid height [m]
   158.100  Grid width [m]
     0.000  Vertical flow angle [degrees]
     0.000  Horizontal flow angle [degrees]


Meteorological Boundary Conditions:

    TIMESR  User-input time series spectral model
       N/A  IEC standard
       N/A  IEC turbulence characteristic
       N/A  IEC turbulence type
       N/A  IEC Extreme Turbulence Model (ETM) "c" parameter [m/s]
       PL   Wind profile type
    90.000  Reference height [m]
    10.000  Reference wind speed [m/s]
       N/A  Jet height [m]
     0.120  Power law exponent
     0.030  Surface roughness length [m]


Non-IEC Meteorological Boundary Conditions:

    45.000  Site latitude [degrees]
     0.050  Gradient Richardson number
     0.480  Friction or shear velocity [m/s]
       N/A  Mixing layer depth [m]
       N/A  Mean hub u'w' Reynolds stress
       N/A  Mean hub u'v' Reynolds stress
       N/A  Mean hub v'w' Reynolds stress


Spatial Coherence Models:

       IEC  u-component coherence model
       IEC  v-component coherence model
       IEC  w-component coherence model
(   12.000, 0.353E-03)  u-component coherence parameters
(   12.000, 0.353E-03)  v-component coherence parameters
(   12.000, 0.353E-03)  w-component coherence parameters
       N/A  Coherence exponent


Coherent Turbulence Scaling Parameters:

.\EventData
            Name of the path containing the coherent turbulence data files
       les  Type of coherent turbulence data files
     1.000  Disturbance scale (ratio of wave height to rotor diameter)
     0.500  Fractional location of tower centerline from right
     0.500  Fractional location of hub height from the bottom of the dataset
    30.000  Minimum start time for coherent structures [seconds]


Profiles from User-Defined Time-Series Input:

  Height   Wind Speed   Horizontal Angle   Vertical Angle
   (m)        (m/s)          (deg)              (deg)    
  ------   ----------   ----------------   --------------
   94.00      10.00          -0.63                0.00


You have requested that the following file(s) be generated:

   /kfs3/scratch/agupta/Projects/RL_Incubator/FinalRuns_Veer/Seed4/./FFSim_Seed4/Cond00_v10.0_PL0.12_TI7.5/Case2_wdirp04/Seed_2/TurbSim/HighT14.bts (AeroDyn/TurbSim full-field wind file)


Turbulence Simulation Scaling Parameter Summary:

   Turbulence model used                            =  User-input time series
   Gradient Richardson number                       =    0.050
   Monin-Obukhov (M-O) z/L parameter                =    0.067
   Monin-Obukhov (M-O) length scale                 = 1340.250 m
   Mean wind speed at hub height                    =    9.991 m/s

   Wind profile type                                =  Power law
   Power law exponent                               =    0.120
   Mean shear across rotor disk                     =    0.019 (m/s)/m
   Assumed rotor diameter                           =  158.100 m
   Surface roughness length                         =    0.030 m

   Nyquist frequency of turbulent wind field        =    2.000 Hz

   Number of time steps in the FFT                  =     3600
   Number of time steps output                      =     3600
   Number of points simulated                       =     1296


Mean Flow Angles:

   Vertical   =   0.0 degrees
   Horizontal =   0.0 degrees

Mean Wind Speed Profile:

   Height    Wind Speed   Horizontal Angle  Vertical Angle  U-comp (X)   V-comp (Y)   W-comp (Z)
     (m)        (m/s)         (degrees)       (degrees)       (m/s)        (m/s)        (m/s)   
   ------    ----------   ----------------  --------------  ----------   ----------   ----------
    168.4       10.78            0.00            0.00         10.78         0.00         0.00
    163.7       10.74            0.00            0.00         10.74         0.00         0.00
    159.1       10.71            0.00            0.00         10.71         0.00         0.00
    154.4       10.67            0.00            0.00         10.67         0.00         0.00
    149.8       10.63            0.00            0.00         10.63         0.00         0.00
    145.1       10.59            0.00            0.00         10.59         0.00         0.00
    140.5       10.55            0.00            0.00         10.55         0.00         0.00
    135.8       10.51            0.00            0.00         10.51         0.00         0.00
    131.2       10.46            0.00            0.00         10.46         0.00         0.00
    126.5       10.42            0.00            0.00         10.42         0.00         0.00
    121.9       10.37            0.00            0.00         10.37         0.00         0.00
    117.2       10.32            0.00            0.00         10.32         0.00         0.00
    112.6       10.27            0.00            0.00         10.27         0.00         0.00
    107.9       10.22            0.00            0.00         10.22         0.00         0.00
    103.3       10.17            0.00            0.00         10.17         0.00         0.00
     98.6       10.11            0.00            0.00         10.11         0.00         0.00
     94.0       10.05            0.00            0.00         10.05         0.00         0.00
     89.3        9.99            0.00            0.00          9.99         0.00         0.00
     84.7        9.93            0.00            0.00          9.93         0.00         0.00
     80.0        9.86            0.00            0.00          9.86         0.00         0.00
     75.4        9.79            0.00            0.00          9.79         0.00         0.00
     70.7        9.72            0.00            0.00          9.72         0.00         0.00
     66.1        9.64            0.00            0.00          9.64         0.00         0.00
     61.4        9.55            0.00            0.00          9.55         0.00         0.00
     56.8        9.46            0.00            0.00          9.46         0.00         0.00
     52.1        9.37            0.00            0.00          9.37         0.00         0.00
     47.5        9.26            0.00            0.00          9.26         0.00         0.00
     42.8        9.15            0.00            0.00          9.15         0.00         0.00
     38.2        9.02            0.00            0.00          9.02         0.00         0.00
     33.5        8.88            0.00            0.00          8.88         0.00         0.00
     28.9        8.73            0.00            0.00          8.73         0.00         0.00
     24.2        8.54            0.00            0.00          8.54         0.00         0.00
     19.6        8.33            0.00            0.00          8.33         0.00         0.00
     14.9        8.06            0.00            0.00          8.06         0.00         0.00
     10.3        7.71            0.00            0.00          7.71         0.00         0.00
      5.6        7.17            0.00            0.00          7.17         0.00         0.00
      1.0        5.83            0.00            0.00          5.83         0.00         0.00


Harvested Random Seeds after Generation of the Random Numbers:

     65026800 K 1
            0 K 2


Hub-Height Simulated Turbulence Statistical Summary:

   Type of Wind        Min (m/s)   Mean (m/s)    Max (m/s)  Sigma (m/s)       TI (%)
   ----------------    ---------   ----------    ---------  -----------       ------
   Longitudinal (u)         7.63         9.99        12.32        0.880        8.805
   Lateral (v)             -1.73        -0.00         1.75        0.528        5.289
   Vertical (w)            -1.26        -0.00         1.12        0.358        3.583
   U component              7.63         9.99        12.32        0.880        8.805
   V component             -1.73        -0.00         1.75        0.528        5.289
   W component             -1.26        -0.00         1.12        0.358        3.583
   Horizontal (U&V)         7.63        10.01        12.34        0.878        8.778
   Total                    7.66        10.01        12.34        0.878        8.766

                       Min Reynolds     Mean Reynolds    Max Reynolds    Correlation
   Product             Stress (m/s)^2   Stress (m/s)^2   Stress (m/s)^2  Coefficient
   ----------------    --------------   --------------   --------------  -----------
   u'w'                     -1.949             0.016             1.865         0.051
   u'v'                     -2.304            -0.100             2.056        -0.215
   v'w'                     -0.786             0.023             1.585         0.122


   Friction Velocity (Ustar)  =      0.127 m/s
   Maximum Instantaneous TKE  =      2.963 (m/s)^2
   Maximum Instantaneous CTKE =      1.231 (m/s)^2


Grid Point Variance Summary:

   Y-coord  -79.05  -74.40  -69.75  -65.10  -60.45  -55.80  -51.15  -46.50  -41.85  -37.20  -32.55  -27.90  -23.25  -18.60  -13.95   -9.30   -4.65    0.00    4.65    9.30   13.95   18.60   23.25   27.90   32.55   37.20   41.85   46.50   51.15   55.80   60.45   65.10   69.75   74.40   79.05

   Height   Standard deviation at grid points for the u component:
   168.40    0.792   0.773   0.799   0.830   0.932   0.943   0.872   0.823   0.822   0.852   0.892   0.876   0.776   0.804   0.734   0.813   0.795   0.779   0.802   0.795   0.800   0.818   0.784   0.768   0.696   0.667   0.709   0.681   0.725   0.777   0.874   0.878   0.772   0.765   0.786
   163.75    0.773   0.768   0.836   0.888   0.952   0.930   0.933   0.796   0.827   0.849   0.891   0.838   0.816   0.767   0.772   0.830   0.808   0.732   0.760   0.806   0.810   0.779   0.797   0.701   0.684   0.654   0.698   0.744   0.773   0.763   0.794   0.813   0.806   0.760   0.830
   159.10    0.796   0.758   0.828   0.908   0.903   0.925   0.844   0.758   0.895   0.814   0.900   0.894   0.887   0.796   0.814   0.809   0.748   0.761   0.727   0.720   0.763   0.781   0.785   0.718   0.684   0.713   0.735   0.806   0.815   0.775   0.800   0.746   0.746   0.747   0.799
   154.45    0.795   0.790   0.883   0.935   0.942   0.919   0.846   0.878   0.863   0.880   0.950   0.972   0.873   0.908   0.784   0.802   0.784   0.751   0.782   0.733   0.796   0.826   0.771   0.778   0.773   0.733   0.750   0.777   0.839   0.845   0.781   0.750   0.736   0.675   0.777
   149.80    0.909   0.828   0.944   0.947   0.957   0.978   0.894   0.855   0.842   0.927   0.926   0.905   0.931   0.876   0.801   0.829   0.866   0.816   0.756   0.793   0.833   0.798   0.727   0.731   0.742   0.782   0.788   0.837   0.831   0.807   0.754   0.680   0.652   0.719   0.730
   145.15    0.891   0.867   0.863   0.951   0.970   0.991   0.940   0.887   0.858   0.939   0.962   0.928   0.931   0.829   0.814   0.888   0.873   0.866   0.799   0.770   0.828   0.803   0.745   0.766   0.720   0.775   0.829   0.819   0.794   0.779   0.744   0.638   0.621   0.673   0.685
   140.50    0.861   0.842   0.810   0.869   1.010   1.015   0.994   0.966   0.928   0.951   0.915   0.908   0.884   0.843   0.854   0.912   0.906   0.912   0.853   0.909   0.799   0.850   0.803   0.713   0.729   0.793   0.765   0.803   0.800   0.758   0.743   0.694   0.655   0.677   0.654
   135.85    0.897   0.857   0.941   0.932   0.987   1.112   1.048   0.974   0.968   0.968   0.994   0.929   0.902   0.886   0.946   0.918   0.925   0.842   0.879   0.861   0.855   0.815   0.807   0.741   0.783   0.793   0.768   0.757   0.754   0.745   0.772   0.720   0.661   0.624   0.630
   131.20    0.857   0.864   0.961   0.913   1.006   1.064   1.037   1.056   1.008   0.920   0.949   0.936   0.850   0.884   0.904   0.880   0.843   0.853   0.848   0.891   0.876   0.832   0.809   0.765   0.726   0.767   0.775   0.743   0.759   0.758   0.783   0.681   0.604   0.635   0.617
   126.55    0.964   0.940   0.919   0.916   0.928   1.001   1.039   1.032   0.976   0.939   0.979   0.984   0.828   0.785   0.797   0.839   0.818   0.831   0.873   0.904   0.903   0.784   0.789   0.714   0.681   0.730   0.757   0.765   0.786   0.768   0.827   0.712   0.703   0.709   0.610
   121.90    0.969   0.985   0.915   0.947   0.871   0.923   0.981   1.045   1.036   0.928   0.935   0.964   0.798   0.796   0.730   0.757   0.795   0.787   0.882   0.907   0.879   0.788   0.752   0.706   0.726   0.703   0.751   0.712   0.730   0.744   0.794   0.820   0.730   0.714   0.679
   117.25    1.048   1.011   0.954   0.960   0.969   0.933   0.941   1.014   0.997   0.937   0.972   0.893   0.853   0.816   0.733   0.723   0.790   0.801   0.895   0.963   0.901   0.837   0.792   0.756   0.787   0.722   0.759   0.728   0.735   0.777   0.764   0.782   0.700   0.709   0.736
   112.60    1.028   0.988   0.917   0.961   0.989   1.057   1.053   0.962   0.935   0.911   1.007   1.009   0.861   0.803   0.740   0.772   0.779   0.841   0.952   0.942   0.858   0.877   0.863   0.782   0.791   0.742   0.704   0.725   0.697   0.754   0.779   0.791   0.736   0.707   0.734
   107.95    1.032   1.039   0.975   0.954   0.987   1.025   1.039   0.980   0.944   0.965   1.005   0.974   0.880   0.823   0.777   0.781   0.791   0.818   0.878   0.866   0.826   0.793   0.861   0.861   0.844   0.817   0.739   0.757   0.693   0.763   0.772   0.802   0.799   0.764   0.734
   103.30    1.008   1.036   1.006   1.068   0.969   0.950   0.984   0.954   0.994   0.980   0.981   0.924   0.939   0.853   0.808   0.827   0.835   0.771   0.764   0.795   0.808   0.844   0.824   0.857   0.856   0.798   0.743   0.721   0.709   0.694   0.769   0.800   0.797   0.767   0.768
    98.65    1.056   0.982   0.987   1.032   0.993   1.003   0.962   0.968   0.956   0.959   0.955   0.963   0.925   0.842   0.800   0.878   0.793   0.784   0.741   0.756   0.739   0.792   0.891   0.824   0.837   0.867   0.872   0.840   0.804   0.857   0.821   0.828   0.817   0.783   0.777
    94.00    1.018   0.989   0.952   0.975   1.005   1.001   0.907   0.935   0.904   0.961   0.893   0.985   0.970   0.892   0.908   0.946   0.867   0.813   0.781   0.764   0.779   0.818   0.840   0.881   0.835   0.816   0.877   0.885   0.896   0.934   0.901   0.928   0.867   0.824   0.835
    89.35    0.924   0.948   0.942   0.925   0.908   0.983   0.943   0.967   0.973   1.023   0.965   0.962   0.955   0.911   0.878   0.933   0.929   0.880   0.871   0.822   0.817   0.810   0.804   0.883   0.825   0.849   0.820   0.883   0.819   0.871   0.922   0.961   0.932   0.848   0.879
    84.70    0.878   0.884   0.891   1.009   0.951   0.938   1.004   1.066   1.108   1.051   1.054   1.061   0.939   0.958   0.902   0.993   0.917   0.976   0.867   0.811   0.826   0.824   0.838   0.832   0.874   0.920   0.865   0.871   0.921   0.882   0.949   0.975   0.999   0.909   0.961
    80.05    0.889   0.891   0.939   0.992   1.047   0.979   1.047   1.085   1.123   1.081   1.038   1.045   0.974   1.011   1.014   1.048   1.069   1.016   0.961   0.954   0.865   0.890   0.890   0.951   0.916   0.912   0.942   0.967   0.889   0.900   0.970   0.958   0.983   0.958   0.936
    75.40    0.943   0.869   0.869   0.863   0.977   0.982   1.006   1.076   1.056   1.107   1.099   1.064   1.038   1.112   1.137   1.160   1.096   0.989   1.054   1.041   0.955   0.935   0.947   1.006   0.996   0.958   1.015   0.960   0.934   0.909   0.955   0.938   0.919   1.003   0.949
    70.75    0.978   0.894   0.886   0.879   1.008   0.981   1.018   1.055   1.095   1.078   1.123   1.168   1.122   1.141   1.134   1.151   1.040   1.024   1.002   0.963   0.932   0.850   0.881   0.899   0.978   1.003   1.012   1.077   0.928   0.994   1.007   0.957   0.932   0.941   0.977
    66.10    0.998   0.896   0.898   0.822   0.902   1.023   1.090   1.020   1.118   1.103   1.069   1.074   1.135   1.110   1.152   1.157   1.104   1.082   0.976   0.912   0.851   0.836   0.891   0.943   0.967   1.011   1.066   1.054   0.985   1.003   1.018   0.989   0.958   0.900   0.938
    61.45    0.930   0.959   0.886   0.836   0.943   1.017   1.032   1.029   1.062   1.089   1.086   1.093   1.123   1.094   1.130   1.132   1.064   1.062   1.041   1.016   0.940   0.951   1.054   1.060   1.107   1.064   1.082   0.999   0.982   0.993   0.961   0.975   0.910   0.894   0.879
    56.80    0.955   0.938   0.935   0.927   1.031   1.012   1.022   1.109   1.104   1.092   1.098   1.070   1.005   1.051   1.056   1.092   1.076   1.072   0.985   0.976   0.981   1.021   1.050   1.089   1.073   1.041   1.044   0.968   0.951   1.031   0.967   0.975   0.911   0.898   0.876
    52.15    0.968   0.992   0.978   0.991   1.046   1.118   1.020   1.119   1.138   1.063   1.060   1.057   1.076   0.978   1.016   1.056   1.056   1.039   0.999   0.957   0.972   1.004   1.056   1.071   0.987   1.005   1.009   0.921   0.998   0.984   0.986   1.013   0.994   0.932   0.898
    47.50    0.922   0.924   0.952   0.994   1.099   1.117   1.061   1.143   1.078   1.114   1.070   1.023   1.005   0.978   1.000   1.031   1.043   0.984   0.964   0.923   1.011   1.007   1.012   1.030   0.967   1.026   0.980   0.959   0.972   1.006   1.001   0.980   0.980   0.944   0.945
    42.85    0.976   0.978   1.003   1.080   1.082   1.041   1.095   1.077   1.103   1.019   0.979   1.049   0.992   1.031   1.003   0.993   0.961   1.009   0.957   0.996   0.954   1.032   0.988   0.952   0.974   0.959   1.026   1.011   0.946   0.993   1.016   1.028   1.077   0.965   0.944
    38.20    0.913   0.981   1.047   1.054   1.106   1.103   1.101   1.100   1.019   1.039   1.027   0.970   0.998   0.993   0.996   0.977   0.948   0.976   0.956   0.993   0.990   0.979   0.966   0.944   0.902   0.901   0.971   0.970   0.966   0.934   0.949   1.016   0.965   0.973   0.900
    33.55    0.966   0.911   1.014   0.993   1.097   1.072   1.044   0.997   0.941   0.948   0.968   0.982   0.923   0.926   0.976   0.973   1.034   0.948   1.032   0.964   0.930   0.863   0.928   0.841   0.906   0.907   0.961   1.002   0.942   0.903   0.831   0.936   0.998   0.945   0.900
    28.90    0.889   0.893   0.961   1.013   1.102   1.131   1.085   1.034   0.999   1.059   0.979   0.929   0.947   0.883   0.895   1.049   1.108   1.017   0.984   0.958   0.958   0.962   0.942   0.857   0.866   0.876   0.982   0.925   0.967   0.932   0.889   0.906   1.008   0.939   0.929
    24.25    0.850   0.851   0.942   0.892   1.001   1.103   1.085   1.086   1.025   1.071   1.011   1.038   0.959   0.922   0.967   1.011   1.066   1.030   1.026   1.052   1.058   0.927   0.960   0.885   0.875   0.892   0.959   0.988   1.009   1.001   0.920   0.939   0.987   0.966   0.969
    19.60    0.903   0.902   0.935   0.882   0.955   1.021   1.078   1.066   1.102   1.044   0.955   0.956   0.914   0.931   0.925   0.908   0.991   0.954   1.012   1.016   1.006   0.899   0.927   0.912   0.920   0.945   0.981   0.936   0.958   0.956   0.948   0.941   1.006   0.941   0.925
    14.95    0.917   0.988   1.000   0.969   0.979   0.992   1.031   1.061   1.034   0.976   0.996   0.964   0.902   0.855   0.841   0.918   0.962   0.929   0.964   1.010   0.959   0.957   0.870   0.860   0.892   0.933   0.976   0.957   0.947   0.992   0.880   0.908   0.961   0.972   0.871
    10.30    1.042   0.972   1.060   1.068   0.984   0.983   0.972   1.002   1.031   0.971   0.925   1.039   0.961   0.907   0.865   0.864   0.891   0.833   0.872   0.988   0.988   0.950   0.865   0.868   0.952   0.985   0.940   0.946   0.959   0.966   0.948   0.933   0.998   0.921   0.880
     5.65    1.049   0.994   1.034   1.043   0.995   0.970   0.961   0.877   0.953   0.985   1.005   1.025   1.038   0.997   0.930   0.883   0.840   0.866   0.943   0.951   0.975   0.920   0.882   0.919   0.950   0.965   0.929   0.968   1.047   1.020   0.950   1.002   0.999   0.912   0.912
     1.00    0.980   1.055   1.045   1.007   0.986   0.913   0.848   0.856   0.903   0.936   0.999   1.019   1.096   0.984   0.893   0.921   0.908   0.904   0.912   0.936   0.949   0.896   0.931   0.969   1.019   0.986   1.000   1.078   1.006   1.000   0.888   0.951   0.921   0.951   0.891

   Height   Standard deviation at grid points for the v component:
   168.40    0.576   0.556   0.562   0.559   0.563   0.575   0.556   0.548   0.569   0.596   0.596   0.599   0.578   0.597   0.580   0.558   0.572   0.548   0.555   0.527   0.561   0.547   0.549   0.537   0.533   0.521   0.517   0.518   0.510   0.497   0.538   0.525   0.533   0.531   0.500
   163.75    0.530   0.553   0.580   0.591   0.585   0.584   0.548   0.591   0.612   0.603   0.583   0.588   0.587   0.603   0.599   0.565   0.566   0.569   0.574   0.560   0.543   0.543   0.531   0.529   0.527   0.523   0.497   0.503   0.509   0.542   0.530   0.506   0.495   0.522   0.512
   159.10    0.560   0.575   0.588   0.599   0.569   0.594   0.580   0.609   0.613   0.618   0.623   0.590   0.566   0.589   0.610   0.583   0.579   0.575   0.571   0.564   0.546   0.532   0.540   0.551   0.548   0.512   0.505   0.526   0.509   0.560   0.513   0.522   0.510   0.509   0.522
   154.45    0.509   0.564   0.593   0.576   0.617   0.586   0.586   0.595   0.595   0.651   0.664   0.609   0.597   0.603   0.627   0.614   0.600   0.566   0.581   0.571   0.532   0.524   0.533   0.551   0.529   0.537   0.533   0.526   0.524   0.549   0.552   0.515   0.524   0.517   0.545
   149.80    0.551   0.539   0.593   0.579   0.586   0.569   0.573   0.559   0.554   0.626   0.644   0.608   0.611   0.606   0.612   0.602   0.580   0.551   0.558   0.541   0.508   0.517   0.521   0.552   0.567   0.545   0.551   0.538   0.538   0.547   0.537   0.546   0.543   0.532   0.537
   145.15    0.561   0.581   0.581   0.576   0.571   0.591   0.547   0.558   0.590   0.608   0.587   0.609   0.597   0.586   0.604   0.567   0.566   0.554   0.538   0.517   0.503   0.515   0.559   0.565   0.578   0.557   0.576   0.536   0.535   0.542   0.536   0.534   0.546   0.549   0.577
   140.50    0.588   0.563   0.576   0.560   0.574   0.579   0.560   0.582   0.564   0.570   0.581   0.588   0.569   0.551   0.558   0.536   0.539   0.570   0.545   0.517   0.500   0.522   0.574   0.566   0.561   0.577   0.588   0.555   0.539   0.537   0.559   0.581   0.550   0.542   0.568
   135.85    0.579   0.579   0.555   0.552   0.559   0.542   0.555   0.594   0.577   0.561   0.583   0.565   0.554   0.526   0.512   0.518   0.542   0.549   0.558   0.528   0.519   0.509   0.526   0.566   0.587   0.569   0.553   0.558   0.558   0.549   0.552   0.539   0.559   0.535   0.552
   131.20    0.560   0.548   0.558   0.570   0.530   0.531   0.545   0.568   0.559   0.552   0.535   0.523   0.542   0.531   0.517   0.519   0.535   0.562   0.525   0.516   0.537   0.548   0.557   0.572   0.572   0.557   0.546   0.573   0.536   0.533   0.553   0.542   0.523   0.547   0.537
   126.55    0.524   0.541   0.546   0.535   0.520   0.528   0.519   0.537   0.558   0.546   0.527   0.526   0.514   0.529   0.527   0.515   0.529   0.554   0.524   0.524   0.531   0.539   0.571   0.577   0.568   0.557   0.558   0.525   0.527   0.521   0.545   0.548   0.529   0.494   0.518
   121.90    0.522   0.545   0.543   0.537   0.512   0.516   0.526   0.506   0.522   0.526   0.522   0.493   0.467   0.504   0.506   0.466   0.503   0.522   0.528   0.548   0.544   0.563   0.584   0.566   0.558   0.535   0.535   0.519   0.521   0.530   0.535   0.505   0.511   0.505   0.527
   117.25    0.537   0.527   0.520   0.532   0.507   0.513   0.510   0.518   0.500   0.517   0.536   0.518   0.502   0.488   0.474   0.494   0.511   0.517   0.542   0.574   0.546   0.570   0.572   0.544   0.546   0.545   0.530   0.494   0.522   0.523   0.514   0.528   0.512   0.508   0.520
   112.60    0.536   0.550   0.539   0.542   0.524   0.496   0.508   0.497   0.518   0.513   0.539   0.520   0.485   0.522   0.507   0.512   0.534   0.538   0.539   0.594   0.542   0.548   0.547   0.530   0.527   0.529   0.552   0.541   0.526   0.527   0.505   0.509   0.499   0.502   0.515
   107.95    0.541   0.554   0.529   0.539   0.534   0.532   0.519   0.526   0.554   0.550   0.525   0.536   0.494   0.529   0.563   0.551   0.569   0.539   0.542   0.553   0.528   0.505   0.527   0.556   0.565   0.513   0.512   0.523   0.513   0.534   0.543   0.538   0.508   0.524   0.507
   103.30    0.524   0.526   0.507   0.545   0.523   0.545   0.528   0.530   0.520   0.548   0.534   0.514   0.512   0.544   0.573   0.546   0.570   0.540   0.523   0.548   0.544   0.520   0.532   0.542   0.542   0.536   0.544   0.570   0.547   0.522   0.552   0.571   0.524   0.510   0.483
    98.65    0.545   0.526   0.563   0.560   0.536   0.550   0.526   0.527   0.555   0.522   0.522   0.522   0.540   0.543   0.571   0.598   0.592   0.532   0.533   0.535   0.560   0.541   0.537   0.550   0.557   0.553   0.554   0.563   0.562   0.513   0.529   0.545   0.498   0.502   0.507
    94.00    0.558   0.551   0.600   0.571   0.544   0.533   0.515   0.536   0.541   0.528   0.537   0.519   0.547   0.582   0.598   0.583   0.574   0.555   0.543   0.526   0.540   0.526   0.533   0.539   0.536   0.553   0.535   0.524   0.537   0.518   0.501   0.513   0.499   0.503   0.518
    89.35    0.589   0.577   0.569   0.551   0.571   0.522   0.532   0.551   0.567   0.535   0.538   0.554   0.573   0.578   0.605   0.588   0.562   0.528   0.543   0.530   0.555   0.510   0.497   0.526   0.515   0.546   0.553   0.563   0.556   0.535   0.535   0.540   0.511   0.523   0.571
    84.70    0.599   0.592   0.555   0.554   0.564   0.532   0.548   0.554   0.532   0.514   0.510   0.555   0.538   0.566   0.624   0.601   0.570   0.564   0.530   0.514   0.542   0.538   0.525   0.519   0.540   0.511   0.523   0.521   0.548   0.509   0.512   0.534   0.541   0.565   0.557
    80.05    0.590   0.571   0.557   0.554   0.543   0.573   0.547   0.548   0.564   0.540   0.531   0.533   0.559   0.590   0.613   0.571   0.565   0.561   0.524   0.540   0.520   0.510   0.516   0.513   0.524   0.532   0.547   0.522   0.511   0.514   0.495   0.516   0.542   0.563   0.524
    75.40    0.568   0.547   0.539   0.556   0.564   0.598   0.566   0.576   0.552   0.573   0.555   0.548   0.556   0.550   0.567   0.556   0.561   0.545   0.554   0.600   0.550   0.546   0.511   0.497   0.521   0.557   0.568   0.565   0.514   0.512   0.513   0.519   0.532   0.548   0.531
    70.75    0.559   0.566   0.551   0.567   0.575   0.586   0.569   0.561   0.549   0.569   0.553   0.527   0.553   0.561   0.578   0.557   0.569   0.596   0.569   0.588   0.590   0.529   0.542   0.520   0.513   0.565   0.578   0.533   0.515   0.500   0.512   0.502   0.517   0.542   0.539
    66.10    0.535   0.553   0.541   0.551   0.574   0.582   0.572   0.563   0.554   0.568   0.561   0.540   0.534   0.565   0.547   0.552   0.561   0.562   0.551   0.569   0.564   0.552   0.556   0.515   0.542   0.552   0.537   0.531   0.467   0.512   0.519   0.523   0.524   0.540   0.501
    61.45    0.534   0.537   0.552   0.563   0.564   0.591   0.558   0.549   0.545   0.556   0.498   0.521   0.534   0.559   0.527   0.548   0.546   0.532   0.560   0.551   0.555   0.545   0.561   0.550   0.553   0.509   0.525   0.503   0.504   0.516   0.532   0.493   0.509   0.507   0.483
    56.80    0.553   0.553   0.552   0.578   0.568   0.579   0.566   0.550   0.565   0.536   0.516   0.500   0.513   0.532   0.551   0.551   0.548   0.496   0.527   0.541   0.529   0.554   0.563   0.548   0.556   0.511   0.502   0.509   0.502   0.513   0.501   0.499   0.502   0.482   0.526
    52.15    0.549   0.545   0.566   0.570   0.574   0.569   0.570   0.548   0.532   0.514   0.507   0.511   0.496   0.513   0.530   0.530   0.529   0.512   0.512   0.536   0.551   0.552   0.531   0.517   0.533   0.514   0.530   0.506   0.491   0.487   0.470   0.491   0.469   0.484   0.505
    47.50    0.539   0.556   0.566   0.577   0.562   0.549   0.538   0.532   0.531   0.532   0.543   0.541   0.518   0.505   0.530   0.527   0.529   0.516   0.518   0.509   0.515   0.520   0.525   0.523   0.525   0.531   0.528   0.527   0.555   0.520   0.518   0.505   0.512   0.492   0.517
    42.85    0.554   0.537   0.542   0.562   0.557   0.569   0.594   0.535   0.557   0.558   0.536   0.531   0.522   0.527   0.536   0.521   0.491   0.492   0.508   0.497   0.526   0.529   0.524   0.502   0.504   0.515   0.518   0.516   0.535   0.550   0.553   0.548   0.527   0.510   0.518
    38.20    0.553   0.523   0.543   0.550   0.541   0.571   0.570   0.575   0.552   0.528   0.513   0.529   0.516   0.516   0.536   0.516   0.498   0.519   0.535   0.516   0.499   0.515   0.541   0.525   0.529   0.530   0.513   0.533   0.551   0.550   0.549   0.561   0.562   0.550   0.543
    33.55    0.528   0.519   0.539   0.533   0.541   0.565   0.562   0.565   0.534   0.514   0.491   0.512   0.505   0.526   0.505   0.511   0.515   0.517   0.518   0.542   0.508   0.522   0.528   0.522   0.530   0.519   0.528   0.552   0.553   0.567   0.533   0.539   0.544   0.551   0.563
    28.90    0.505   0.510   0.537   0.539   0.529   0.521   0.540   0.541   0.524   0.520   0.532   0.529   0.530   0.538   0.535   0.532   0.495   0.532   0.530   0.508   0.532   0.541   0.525   0.522   0.520   0.540   0.573   0.568   0.579   0.611   0.568   0.533   0.553   0.537   0.546
    24.25    0.520   0.512   0.546   0.540   0.521   0.514   0.518   0.538   0.546   0.535   0.520   0.538   0.561   0.534   0.546   0.535   0.504   0.485   0.512   0.515   0.522   0.526   0.532   0.536   0.565   0.558   0.567   0.592   0.585   0.605   0.562   0.557   0.533   0.560   0.563
    19.60    0.532   0.562   0.552   0.556   0.544   0.546   0.568   0.561   0.570   0.529   0.518   0.527   0.541   0.549   0.535   0.553   0.503   0.490   0.532   0.545   0.561   0.514   0.545   0.548   0.550   0.530   0.565   0.586   0.575   0.560   0.566   0.571   0.578   0.556   0.565
    14.95    0.543   0.572   0.553   0.569   0.572   0.583   0.587   0.606   0.569   0.548   0.500   0.511   0.532   0.525   0.536   0.571   0.550   0.514   0.532   0.528   0.538   0.536   0.565   0.519   0.538   0.521   0.526   0.546   0.571   0.565   0.602   0.621   0.612   0.582   0.571
    10.30    0.581   0.572   0.572   0.567   0.551   0.581   0.570   0.592   0.586   0.548   0.536   0.496   0.520   0.533   0.524   0.532   0.540   0.518   0.514   0.523   0.548   0.558   0.539   0.509   0.531   0.547   0.567   0.571   0.582   0.583   0.614   0.587   0.613   0.580   0.600
     5.65    0.563   0.583   0.591   0.578   0.560   0.601   0.573   0.578   0.581   0.574   0.560   0.511   0.515   0.526   0.550   0.534   0.528   0.521   0.516   0.519   0.551   0.551   0.537   0.509   0.538   0.546   0.552   0.582   0.607   0.595   0.609   0.591   0.589   0.577   0.577
     1.00    0.561   0.581   0.587   0.581   0.591   0.591   0.556   0.557   0.559   0.563   0.579   0.536   0.529   0.513   0.534   0.524   0.501   0.508   0.538   0.540   0.548   0.550   0.556   0.553   0.547   0.536   0.581   0.576   0.600   0.583   0.578   0.584   0.573   0.590   0.561

   Height   Standard deviation at grid points for the w component:
   168.40    0.375   0.364   0.362   0.363   0.351   0.344   0.337   0.355   0.355   0.370   0.375   0.379   0.386   0.381   0.378   0.378   0.364   0.357   0.364   0.355   0.345   0.347   0.350   0.368   0.355   0.341   0.335   0.335   0.341   0.347   0.346   0.350   0.348   0.338   0.346
   163.75    0.364   0.372   0.375   0.364   0.361   0.357   0.348   0.368   0.362   0.372   0.373   0.372   0.385   0.385   0.380   0.383   0.370   0.376   0.374   0.379   0.373   0.368   0.361   0.373   0.369   0.351   0.340   0.349   0.339   0.342   0.355   0.353   0.356   0.369   0.353
   159.10    0.360   0.360   0.376   0.377   0.357   0.356   0.351   0.378   0.381   0.373   0.370   0.357   0.363   0.383   0.378   0.382   0.360   0.372   0.375   0.376   0.379   0.366   0.373   0.367   0.366   0.353   0.351   0.345   0.346   0.351   0.354   0.355   0.352   0.358   0.366
   154.45    0.356   0.355   0.366   0.359   0.361   0.354   0.355   0.364   0.372   0.377   0.359   0.374   0.363   0.377   0.375   0.386   0.374   0.370   0.376   0.366   0.377   0.375   0.374   0.369   0.351   0.346   0.349   0.346   0.353   0.350   0.365   0.360   0.360   0.360   0.364
   149.80    0.341   0.338   0.343   0.347   0.355   0.352   0.355   0.362   0.378   0.360   0.357   0.369   0.376   0.376   0.381   0.372   0.367   0.376   0.367   0.356   0.367   0.378   0.369   0.369   0.362   0.362   0.353   0.357   0.349   0.362   0.367   0.371   0.355   0.362   0.346
   145.15    0.340   0.334   0.349   0.350   0.365   0.345   0.345   0.342   0.354   0.364   0.356   0.376   0.387   0.372   0.387   0.380   0.368   0.378   0.365   0.369   0.344   0.365   0.377   0.366   0.377   0.362   0.358   0.344   0.345   0.353   0.379   0.382   0.362   0.373   0.371
   140.50    0.337   0.331   0.339   0.359   0.362   0.345   0.341   0.331   0.340   0.349   0.355   0.358   0.373   0.371   0.375   0.378   0.367   0.360   0.368   0.363   0.347   0.354   0.354   0.359   0.372   0.372   0.346   0.354   0.347   0.352   0.368   0.367   0.368   0.373   0.379
   135.85    0.333   0.340   0.349   0.349   0.348   0.334   0.341   0.328   0.330   0.335   0.343   0.356   0.356   0.348   0.364   0.363   0.380   0.351   0.368   0.374   0.360   0.349   0.357   0.366   0.366   0.366   0.361   0.352   0.370   0.366   0.356   0.368   0.372   0.377   0.367
   131.20    0.340   0.354   0.353   0.337   0.349   0.348   0.340   0.326   0.334   0.350   0.353   0.368   0.375   0.355   0.359   0.364   0.375   0.367   0.361   0.363   0.355   0.356   0.352   0.364   0.379   0.368   0.364   0.372   0.391   0.379   0.373   0.367   0.382   0.364   0.366
   126.55    0.354   0.353   0.344   0.344   0.348   0.341   0.338   0.343   0.326   0.338   0.352   0.355   0.372   0.375   0.367   0.362   0.371   0.365   0.355   0.355   0.363   0.366   0.365   0.375   0.377   0.375   0.383   0.392   0.389   0.376   0.379   0.367   0.386   0.380   0.357
   121.90    0.358   0.349   0.344   0.338   0.336   0.332   0.335   0.337   0.337   0.353   0.348   0.360   0.365   0.359   0.372   0.366   0.367   0.362   0.353   0.367   0.362   0.379   0.379   0.384   0.398   0.379   0.383   0.388   0.389   0.378   0.375   0.385   0.384   0.375   0.374
   117.25    0.352   0.352   0.336   0.330   0.350   0.354   0.343   0.338   0.338   0.352   0.361   0.361   0.351   0.356   0.350   0.373   0.368   0.376   0.361   0.373   0.361   0.361   0.376   0.384   0.385   0.392   0.389   0.398   0.399   0.395   0.384   0.385   0.392   0.378   0.371
   112.60    0.354   0.356   0.348   0.352   0.362   0.365   0.349   0.358   0.355   0.367   0.356   0.353   0.357   0.351   0.354   0.357   0.362   0.372   0.363   0.355   0.354   0.365   0.363   0.364   0.360   0.371   0.370   0.392   0.389   0.396   0.377   0.386   0.385   0.389   0.396
   107.95    0.353   0.354   0.362   0.370   0.373   0.356   0.362   0.361   0.373   0.358   0.359   0.350   0.346   0.360   0.348   0.356   0.362   0.369   0.364   0.347   0.356   0.353   0.364   0.355   0.360   0.336   0.361   0.363   0.385   0.389   0.381   0.375   0.376   0.393   0.395
   103.30    0.345   0.351   0.371   0.373   0.372   0.360   0.371   0.364   0.364   0.358   0.352   0.346   0.336   0.360   0.352   0.362   0.369   0.371   0.354   0.349   0.364   0.374   0.362   0.348   0.353   0.361   0.366   0.367   0.364   0.361   0.373   0.387   0.383   0.386   0.384
    98.65    0.358   0.352   0.360   0.375   0.378   0.359   0.365   0.369   0.361   0.344   0.348   0.349   0.343   0.367   0.361   0.356   0.356   0.353   0.354   0.355   0.369   0.361   0.366   0.371   0.367   0.369   0.373   0.378   0.358   0.365   0.378   0.377   0.393   0.386   0.378
    94.00    0.367   0.384   0.380   0.375   0.366   0.352   0.365   0.377   0.354   0.351   0.344   0.349   0.363   0.359   0.361   0.344   0.358   0.364   0.358   0.367   0.369   0.363   0.377   0.377   0.373   0.369   0.385   0.384   0.377   0.371   0.370   0.366   0.378   0.373   0.365
    89.35    0.379   0.380   0.379   0.386   0.366   0.340   0.358   0.366   0.363   0.368   0.354   0.354   0.379   0.377   0.370   0.354   0.370   0.358   0.358   0.362   0.380   0.366   0.364   0.377   0.379   0.379   0.375   0.372   0.382   0.395   0.386   0.374   0.365   0.369   0.370
    84.70    0.368   0.355   0.355   0.372   0.368   0.361   0.363   0.356   0.363   0.363   0.363   0.360   0.372   0.371   0.350   0.346   0.358   0.348   0.351   0.372   0.383   0.368   0.358   0.375   0.373   0.366   0.362   0.376   0.394   0.403   0.370   0.353   0.345   0.354   0.370
    80.05    0.357   0.359   0.361   0.365   0.379   0.371   0.362   0.361   0.358   0.368   0.351   0.360   0.360   0.356   0.346   0.358   0.360   0.341   0.353   0.355   0.365   0.348   0.359   0.369   0.377   0.360   0.380   0.373   0.376   0.396   0.357   0.349   0.342   0.354   0.355
    75.40    0.372   0.361   0.363   0.357   0.371   0.374   0.366   0.357   0.356   0.354   0.347   0.363   0.354   0.365   0.361   0.366   0.350   0.344   0.347   0.353   0.354   0.369   0.360   0.362   0.362   0.370   0.372   0.376   0.380   0.379   0.362   0.370   0.365   0.367   0.355
    70.75    0.371   0.357   0.372   0.367   0.374   0.370   0.363   0.354   0.348   0.356   0.341   0.343   0.349   0.366   0.358   0.355   0.351   0.347   0.361   0.348   0.355   0.362   0.359   0.373   0.376   0.364   0.369   0.355   0.367   0.385   0.377   0.374   0.366   0.375   0.362
    66.10    0.365   0.378   0.368   0.378   0.380   0.357   0.350   0.354   0.355   0.364   0.335   0.329   0.349   0.344   0.349   0.348   0.350   0.350   0.351   0.358   0.344   0.362   0.351   0.359   0.370   0.366   0.349   0.355   0.340   0.358   0.376   0.366   0.376   0.368   0.369
    61.45    0.360   0.370   0.372   0.382   0.381   0.361   0.355   0.349   0.350   0.360   0.343   0.337   0.355   0.357   0.338   0.346   0.342   0.353   0.358   0.357   0.351   0.358   0.359   0.355   0.354   0.345   0.356   0.350   0.338   0.353   0.353   0.378   0.378   0.368   0.364
    56.80    0.367   0.365   0.370   0.379   0.367   0.368   0.354   0.344   0.350   0.337   0.358   0.340   0.347   0.341   0.340   0.349   0.357   0.361   0.351   0.342   0.350   0.351   0.343   0.344   0.350   0.344   0.341   0.343   0.344   0.340   0.346   0.338   0.353   0.354   0.358
    52.15    0.379   0.377   0.369   0.377   0.368   0.366   0.357   0.353   0.347   0.358   0.341   0.348   0.340   0.351   0.355   0.352   0.362   0.357   0.345   0.346   0.338   0.343   0.348   0.343   0.346   0.348   0.349   0.344   0.348   0.333   0.337   0.343   0.347   0.359   0.370
    47.50    0.373   0.382   0.366   0.371   0.379   0.362   0.372   0.356   0.350   0.364   0.357   0.346   0.353   0.351   0.363   0.363   0.354   0.363   0.357   0.339   0.348   0.339   0.342   0.338   0.345   0.342   0.344   0.345   0.345   0.343   0.341   0.349   0.351   0.361   0.370
    42.85    0.360   0.374   0.373   0.376   0.384   0.363   0.357   0.360   0.346   0.368   0.354   0.356   0.345   0.369   0.357   0.365   0.353   0.352   0.362   0.349   0.343   0.343   0.347   0.345   0.333   0.331   0.335   0.345   0.345   0.337   0.358   0.345   0.360   0.363   0.370
    38.20    0.365   0.361   0.360   0.362   0.368   0.369   0.356   0.358   0.363   0.372   0.357   0.346   0.361   0.365   0.372   0.366   0.347   0.354   0.362   0.348   0.352   0.360   0.357   0.350   0.341   0.340   0.344   0.339   0.345   0.349   0.341   0.347   0.352   0.368   0.379
    33.55    0.357   0.355   0.359   0.368   0.360   0.359   0.340   0.354   0.371   0.367   0.364   0.370   0.371   0.373   0.364   0.357   0.343   0.348   0.357   0.356   0.361   0.352   0.357   0.345   0.346   0.350   0.339   0.342   0.351   0.346   0.358   0.361   0.369   0.375   0.384
    28.90    0.375   0.373   0.383   0.365   0.356   0.350   0.349   0.363   0.366   0.379   0.367   0.359   0.368   0.377   0.356   0.337   0.352   0.347   0.364   0.366   0.362   0.365   0.362   0.357   0.358   0.349   0.344   0.344   0.338   0.343   0.358   0.351   0.369   0.385   0.375
    24.25    0.364   0.385   0.372   0.380   0.371   0.354   0.369   0.371   0.358   0.372   0.357   0.362   0.360   0.360   0.361   0.355   0.350   0.348   0.348   0.351   0.356   0.359   0.363   0.357   0.342   0.358   0.337   0.352   0.353   0.348   0.360   0.357   0.366   0.375   0.370
    19.60    0.368   0.368   0.360   0.356   0.367   0.369   0.376   0.348   0.361   0.370   0.357   0.358   0.357   0.373   0.380   0.372   0.364   0.364   0.349   0.346   0.356   0.344   0.357   0.348   0.351   0.346   0.328   0.350   0.353   0.358   0.371   0.373   0.369   0.368   0.366
    14.95    0.372   0.360   0.359   0.361   0.359   0.363   0.365   0.358   0.359   0.359   0.365   0.358   0.357   0.377   0.381   0.361   0.357   0.353   0.357   0.357   0.367   0.369   0.361   0.357   0.354   0.343   0.338   0.353   0.363   0.370   0.381   0.368   0.367   0.372   0.378
    10.30    0.361   0.368   0.375   0.363   0.356   0.358   0.361   0.362   0.363   0.369   0.358   0.354   0.362   0.360   0.369   0.370   0.363   0.352   0.356   0.355   0.369   0.364   0.356   0.361   0.347   0.353   0.357   0.351   0.355   0.371   0.375   0.362   0.359   0.377   0.385
     5.65    0.372   0.373   0.369   0.367   0.366   0.360   0.358   0.357   0.361   0.360   0.345   0.342   0.358   0.364   0.377   0.348   0.354   0.350   0.354   0.354   0.366   0.362   0.356   0.366   0.352   0.361   0.363   0.355   0.353   0.351   0.353   0.359   0.369   0.367   0.378
     1.00    0.362   0.374   0.377   0.376   0.368   0.364   0.364   0.364   0.348   0.350   0.358   0.360   0.360   0.359   0.365   0.363   0.352   0.357   0.357   0.360   0.362   0.355   0.359   0.369   0.363   0.360   0.358   0.335   0.352   0.360   0.353   0.367   0.366   0.373   0.371

   Mean standard deviation across all grid points:
      u component:    0.915 m/s
      v component:    0.544 m/s
      w component:    0.361 m/s


U-component (X) statistics from the interpolated hub point:

   Mean =   9.9913 m/s
   TI   =   8.8053 %


Processing complete.  6468.7 CPU seconds used.
