
This summary file was generated by TurbSim (from OpenFAST-v3.5.3) on 20-Apr-2025 at 00:55:52.


Runtime Options:

**********  Random seed #1
    RANLUX  Type of random number generator
         F  Output binary HH turbulence parameters?
         F  Output formatted turbulence parameters?
         F  Output AeroDyn HH files?
         T  Output AeroDyn FF files?
         F  Output BLADED FF files?
         F  Output tower data?
         F  Output HAWC FF files?
         F  Output formatted FF files?
         T  Output coherent turbulence time step file?
 0 -  NONE  IEC turbulence models scaled to exact specified standard deviation


Turbine/Model Specifications:

        39  Vertical grid-point matrix dimension
       193  Horizontal grid-point matrix dimension
     0.250  Time step [seconds]
   900.000  Analysis time [seconds]
   900.000  Usable output time [seconds]
   177.700  Hub height [m]
   353.400  Grid height [m]
  1785.600  Grid width [m]
     0.000  Vertical flow angle [degrees]
     0.000  Horizontal flow angle [degrees]


Meteorological Boundary Conditions:

    IECKAI  IEC Kaimal spectral model
         1  IEC standard: IEC 61400-1 Ed. 3: 2005
     6.000  Percent turbulence intensity, IEC 61400-1 Ed. 3: 2005
       NTM  IEC Normal Turbulence Model
       N/A  IEC Extreme Turbulence Model (ETM) "c" parameter [m/s]
       USR  Wind profile type
    90.000  Reference height [m]
       N/A  Reference wind speed [m/s]
       N/A  Jet height [m]
       N/A  Power law exponent
     0.030  Surface roughness length [m]


Non-IEC Meteorological Boundary Conditions:

       N/A  Site latitude [degrees]
       N/A  Gradient Richardson number
       N/A  Friction or shear velocity [m/s]
       N/A  Mixing layer depth [m]
       N/A  Mean hub u'w' Reynolds stress
       N/A  Mean hub u'v' Reynolds stress
       N/A  Mean hub v'w' Reynolds stress


Spatial Coherence Models:

       IEC  u-component coherence model
       IEC  v-component coherence model
       IEC  w-component coherence model
(   12.000, 0.353E-03)  u-component coherence parameters
(   12.000, 0.353E-03)  v-component coherence parameters
(   12.000, 0.353E-03)  w-component coherence parameters
       N/A  Coherence exponent


User-Defined Profiles:

  Height   Wind Speed   Horizontal Angle
   (m)        (m/s)          (deg)      
  ------   ----------   ----------------
  353.40      10.00         318.19
  334.80      10.00         321.14
  316.20      10.00         324.10
  297.60      10.00         327.05
  279.00      10.00         330.00
  260.40      10.00         332.95
  241.80      10.00         335.90
  223.20      10.00         338.86
  204.60      10.00         341.81
  186.00      10.00         344.76
  167.40      10.00         347.71
  148.80      10.00         350.67
  130.20      10.00         353.62
  111.60      10.00         356.57
   93.00      10.00         359.52
   74.40      10.00           2.48
   55.80      10.00           5.43
   37.20      10.00           8.38
   18.60      10.00          11.33
    0.00      10.00          14.29


You have requested that the following file(s) be generated:

   /kfs3/scratch/agupta/Projects/RL_Incubator/FinalRuns_Veer/Seed4/./FFSim_Seed4/Cond00_v10.0_PL0.12_TI6.0/Seed_9/Low.bts (AeroDyn/TurbSim full-field wind file)


Turbulence Simulation Scaling Parameter Summary:

   Turbulence model used                            =  IEC Kaimal
   Turbulence characteristic                        =  User-specified
   IEC standard                                     =  IEC 61400-1 Ed. 3: 2005
   Mean wind speed at hub height                    =   10.000 m/s
   Characteristic value of standard deviation       =    0.600 m/s
   Turbulence scale                                 =   42.000 m
   u-component integral scale                       =  340.200 m
   Coherency scale                                  =  340.200 m
   Characteristic value of hub turbulence intensity =    6.000%
   Gradient Richardson number                       =    0.000

   Wind profile type                                =  Linear interpolation of user-defined profile
   Equivalent power law exponent (upper rotor disk) =    0.000
   Mean shear across rotor disk                     =    0.000 (m/s)/m
   Assumed rotor diameter                           =  353.400 m
   Surface roughness length                         =    0.030 m

   Nyquist frequency of turbulent wind field        =    2.000 Hz

   Number of time steps in the FFT                  =     3600
   Number of time steps output                      =     3600
   Number of points simulated                       =     7527


Mean Flow Angles:

   Vertical   =   0.0 degrees
   Horizontal =   0.0 degrees

Mean Wind Speed Profile:

   Height    Wind Speed   Horizontal Angle  Vertical Angle  U-comp (X)   V-comp (Y)   W-comp (Z)
     (m)        (m/s)         (degrees)       (degrees)       (m/s)        (m/s)        (m/s)   
   ------    ----------   ----------------  --------------  ----------   ----------   ----------
    354.4       10.00          318.19            0.00          7.45        -6.67         0.00
    345.1       10.00          319.51            0.00          7.60        -6.49         0.00
    335.8       10.00          320.98            0.00          7.77        -6.30         0.00
    326.5       10.00          322.46            0.00          7.93        -6.09         0.00
    317.2       10.00          323.94            0.00          8.08        -5.89         0.00
    307.9       10.00          325.41            0.00          8.23        -5.68         0.00
    298.6       10.00          326.89            0.00          8.38        -5.46         0.00
    289.3       10.00          328.37            0.00          8.51        -5.25         0.00
    280.0       10.00          329.84            0.00          8.65        -5.02         0.00
    270.7       10.00          331.32            0.00          8.77        -4.80         0.00
    261.4       10.00          332.79            0.00          8.89        -4.57         0.00
    252.1       10.00          334.27            0.00          9.01        -4.34         0.00
    242.8       10.00          335.75            0.00          9.12        -4.11         0.00
    233.5       10.00          337.22            0.00          9.22        -3.87         0.00
    224.2       10.00          338.70            0.00          9.32        -3.63         0.00
    214.9       10.00          340.17            0.00          9.41        -3.39         0.00
    205.6       10.00          341.65            0.00          9.49        -3.15         0.00
    196.3       10.00          343.13            0.00          9.57        -2.90         0.00
    187.0       10.00          344.60            0.00          9.64        -2.66         0.00
    177.7       10.00          346.08            0.00          9.71        -2.41         0.00
    168.4       10.00          347.56            0.00          9.77        -2.15         0.00
    159.1       10.00          349.03            0.00          9.82        -1.90         0.00
    149.8       10.00          350.51            0.00          9.86        -1.65         0.00
    140.5       10.00          351.98            0.00          9.90        -1.39         0.00
    131.2       10.00          353.46            0.00          9.93        -1.14         0.00
    121.9       10.00          354.94            0.00          9.96        -0.88         0.00
    112.6       10.00          356.41            0.00          9.98        -0.63         0.00
    103.3       10.00          357.89            0.00          9.99        -0.37         0.00
     94.0       10.00          359.37            0.00         10.00        -0.11         0.00
     84.7       10.00          360.84            0.00         10.00         0.15         0.00
     75.4       10.00          362.32            0.00          9.99         0.40         0.00
     66.1       10.00            3.79            0.00          9.98         0.66         0.00
     56.8       10.00            5.27            0.00          9.96         0.92         0.00
     47.5       10.00            6.75            0.00          9.93         1.17         0.00
     38.2       10.00            8.22            0.00          9.90         1.43         0.00
     28.9       10.00            9.70            0.00          9.86         1.68         0.00
     19.6       10.00           11.17            0.00          9.81         1.94         0.00
     10.3       10.00           12.65            0.00          9.76         2.19         0.00
      1.0       10.00           14.13            0.00          9.70         2.44         0.00


Harvested Random Seeds after Generation of the Random Numbers:

    377667225 K 1
            0 K 2


Hub-Height Simulated Turbulence Statistical Summary:

   Type of Wind        Min (m/s)   Mean (m/s)    Max (m/s)  Sigma (m/s)       TI (%)
   ----------------    ---------   ----------    ---------  -----------       ------
   Longitudinal (u)         8.56        10.00        11.56        0.495        4.950
   Lateral (v)             -1.36        -0.00         1.55        0.460        4.596
   Vertical (w)            -0.92        -0.00         0.95        0.274        2.741
   U component              8.30         9.71        11.43        0.496        5.112
   V component             -3.72        -2.41        -0.67        0.458        4.722
   W component             -0.92        -0.00         0.95        0.274        2.823
   Horizontal (U&V)         8.56        10.01        11.59        0.494        4.932
   Total                    8.56        10.01        11.60        0.494        4.929

                       Min Reynolds     Mean Reynolds    Max Reynolds    Correlation
   Product             Stress (m/s)^2   Stress (m/s)^2   Stress (m/s)^2  Coefficient
   ----------------    --------------   --------------   --------------  -----------
   u'w'                     -0.988            -0.008             0.635        -0.058
   u'v'                     -1.537             0.007             1.363         0.030
   v'w'                     -0.720             0.008             1.075         0.065


   Friction Velocity (Ustar)  =      0.088 m/s
   Maximum Instantaneous TKE  =      1.672 (m/s)^2
   Maximum Instantaneous CTKE =      0.937 (m/s)^2


Grid Point Variance Summary:

   Y-coord -892.80 -883.50 -874.20 -864.90 -855.60 -846.30 -837.00 -827.70 -818.40 -809.10 -799.80 -790.50 -781.20 -771.90 -762.60 -753.30 -744.00 -734.70 -725.40 -716.10 -706.80 -697.50 -688.20 -678.90 -669.60 -660.30 -651.00 -641.70 -632.40 -623.10 -613.80 -604.50 -595.20 -585.90 -576.60 -567.30 -558.00 -548.70 -539.40 -530.10 -520.80 -511.50 -502.20 -492.90 -483.60 -474.30 -465.00 -455.70 -446.40 -437.10 -427.80 -418.50 -409.20 -399.90 -390.60 -381.30 -372.00 -362.70 -353.40 -344.10 -334.80 -325.50 -316.20 -306.90 -297.60 -288.30 -279.00 -269.70 -260.40 -251.10 -241.80 -232.50 -223.20 -213.90 -204.60 -195.30 -186.00 -176.70 -167.40 -158.10 -148.80 -139.50 -130.20 -120.90 -111.60 -102.30  -93.00  -83.70  -74.40  -65.10  -55.80  -46.50  -37.20  -27.90  -18.60   -9.30    0.00    9.30   18.60   27.90   37.20   46.50   55.80   65.10   74.40   83.70   93.00  102.30  111.60  120.90  130.20  139.50  148.80  158.10  167.40  176.70  186.00  195.30  204.60  213.90  223.20  232.50  241.80  251.10  260.40  269.70  279.00  288.30  297.60  306.90  316.20  325.50  334.80  344.10  353.40  362.70  372.00  381.30  390.60  399.90  409.20  418.50  427.80  437.10  446.40  455.70  465.00  474.30  483.60  492.90  502.20  511.50  520.80  530.10  539.40  548.70  558.00  567.30  576.60  585.90  595.20  604.50  613.80  623.10  632.40  641.70  651.00  660.30  669.60  678.90  688.20  697.50  706.80  716.10  725.40  734.70  744.00  753.30  762.60  771.90  781.20  790.50  799.80  809.10  818.40  827.70  837.00  846.30  855.60  864.90  874.20  883.50  892.80

   Height   Standard deviation at grid points for the u component:
   354.40    0.593   0.598   0.616   0.612   0.619   0.647   0.632   0.619   0.624   0.606   0.600   0.577   0.616   0.643   0.594   0.604   0.565   0.530   0.550   0.527   0.489   0.536   0.549   0.553   0.558   0.566   0.545   0.494   0.520   0.531   0.562   0.509   0.520   0.526   0.538   0.530   0.518   0.542   0.524   0.542   0.538   0.528   0.537   0.501   0.463   0.521   0.537   0.544   0.512   0.527   0.524   0.595   0.608   0.645   0.629   0.609   0.592   0.611   0.652   0.558   0.537   0.553   0.559   0.550   0.513   0.497   0.516   0.497   0.499   0.525   0.500   0.471   0.450   0.477   0.516   0.521   0.505   0.561   0.558   0.568   0.541   0.541   0.498   0.479   0.517   0.519   0.523   0.509   0.494   0.478   0.518   0.508   0.526   0.460   0.468   0.482   0.473   0.467   0.473   0.481   0.500   0.524   0.521   0.540   0.525   0.539   0.573   0.598   0.616   0.631   0.613   0.618   0.578   0.558   0.576   0.584   0.600   0.624   0.623   0.638   0.643   0.573   0.594   0.552   0.541   0.532   0.542   0.498   0.518   0.559   0.579   0.544   0.552   0.564   0.544   0.553   0.559   0.535   0.502   0.505   0.531   0.541   0.524   0.532   0.480   0.485   0.482   0.494   0.470   0.516   0.518   0.573   0.613   0.583   0.594   0.579   0.576   0.578   0.577   0.525   0.530   0.529   0.550   0.518   0.529   0.513   0.556   0.590   0.563   0.528   0.547   0.538   0.585   0.577   0.547   0.521   0.518   0.501   0.468   0.468   0.520   0.582   0.629   0.627   0.612   0.627   0.634   0.642   0.639   0.585   0.568   0.573   0.530
   345.10    0.608   0.581   0.593   0.631   0.620   0.638   0.621   0.635   0.615   0.623   0.585   0.582   0.588   0.610   0.634   0.607   0.562   0.525   0.542   0.518   0.532   0.531   0.555   0.569   0.561   0.582   0.535   0.500   0.536   0.559   0.527   0.543   0.526   0.533   0.545   0.532   0.512   0.492   0.493   0.538   0.530   0.548   0.510   0.508   0.491   0.493   0.529   0.537   0.523   0.530   0.521   0.551   0.577   0.617   0.663   0.630   0.620   0.589   0.616   0.584   0.588   0.589   0.544   0.544   0.542   0.531   0.524   0.488   0.517   0.505   0.488   0.505   0.497   0.492   0.509   0.515   0.536   0.546   0.549   0.512   0.527   0.513   0.508   0.491   0.483   0.492   0.492   0.494   0.514   0.508   0.545   0.529   0.516   0.478   0.472   0.511   0.477   0.485   0.474   0.480   0.482   0.497   0.531   0.568   0.553   0.552   0.576   0.573   0.587   0.565   0.588   0.565   0.565   0.567   0.565   0.582   0.571   0.572   0.581   0.603   0.604   0.604   0.592   0.593   0.552   0.581   0.536   0.500   0.513   0.532   0.558   0.521   0.532   0.521   0.518   0.549   0.530   0.547   0.522   0.502   0.528   0.496   0.481   0.520   0.522   0.503   0.496   0.453   0.466   0.526   0.502   0.571   0.577   0.565   0.572   0.621   0.643   0.600   0.600   0.565   0.549   0.534   0.562   0.520   0.509   0.499   0.528   0.511   0.489   0.475   0.510   0.514   0.535   0.541   0.556   0.525   0.528   0.497   0.498   0.489   0.553   0.603   0.608   0.611   0.587   0.634   0.654   0.654   0.615   0.566   0.508   0.549   0.503
   335.80    0.590   0.610   0.613   0.649   0.643   0.647   0.617   0.601   0.598   0.627   0.592   0.596   0.590   0.600   0.604   0.609   0.581   0.578   0.521   0.518   0.531   0.517   0.543   0.537   0.563   0.564   0.569   0.547   0.555   0.554   0.522   0.560   0.544   0.559   0.536   0.511   0.500   0.528   0.533   0.534   0.541   0.529   0.476   0.484   0.480   0.511   0.513   0.536   0.502   0.504   0.540   0.568   0.564   0.597   0.605   0.618   0.624   0.578   0.573   0.563   0.603   0.626   0.607   0.573   0.560   0.522   0.523   0.526   0.525   0.532   0.492   0.511   0.512   0.519   0.518   0.517   0.519   0.543   0.524   0.541   0.486   0.494   0.498   0.473   0.480   0.493   0.444   0.492   0.513   0.497   0.503   0.533   0.501   0.499   0.498   0.492   0.508   0.501   0.484   0.487   0.482   0.499   0.517   0.537   0.536   0.543   0.568   0.550   0.544   0.525   0.549   0.580   0.546   0.537   0.580   0.585   0.595   0.624   0.595   0.579   0.610   0.609   0.586   0.573   0.567   0.541   0.551   0.516   0.521   0.533   0.542   0.527   0.546   0.518   0.523   0.535   0.538   0.571   0.509   0.518   0.498   0.489   0.469   0.468   0.474   0.479   0.487   0.483   0.488   0.501   0.551   0.582   0.572   0.568   0.597   0.601   0.620   0.581   0.574   0.547   0.569   0.578   0.558   0.550   0.548   0.541   0.528   0.527   0.549   0.528   0.531   0.527   0.555   0.595   0.574   0.529   0.565   0.574   0.573   0.578   0.568   0.607   0.616   0.597   0.605   0.603   0.619   0.645   0.645   0.564   0.569   0.579   0.540
   326.50    0.635   0.628   0.656   0.654   0.655   0.574   0.609   0.614   0.610   0.596   0.598   0.562   0.580   0.568   0.588   0.565   0.612   0.615   0.602   0.558   0.535   0.553   0.586   0.600   0.567   0.570   0.574   0.558   0.573   0.567   0.542   0.560   0.592   0.548   0.523   0.510   0.504   0.504   0.536   0.566   0.529   0.494   0.487   0.492   0.527   0.561   0.574   0.585   0.578   0.583   0.582   0.573   0.602   0.588   0.590   0.587   0.621   0.584   0.590   0.582   0.623   0.652   0.612   0.597   0.615   0.603   0.553   0.539   0.578   0.549   0.538   0.530   0.510   0.511   0.500   0.492   0.478   0.516   0.525   0.498   0.511   0.479   0.446   0.455   0.458   0.471   0.456   0.474   0.460   0.477   0.503   0.504   0.480   0.491   0.504   0.499   0.481   0.476   0.468   0.458   0.512   0.512   0.496   0.488   0.509   0.529   0.574   0.575   0.549   0.564   0.552   0.560   0.561   0.559   0.550   0.581   0.611   0.589   0.573   0.594   0.604   0.625   0.618   0.580   0.552   0.541   0.556   0.541   0.540   0.534   0.539   0.507   0.536   0.539   0.553   0.539   0.522   0.545   0.535   0.494   0.487   0.477   0.511   0.480   0.437   0.452   0.461   0.472   0.507   0.537   0.545   0.584   0.559   0.567   0.568   0.608   0.602   0.591   0.614   0.568   0.553   0.573   0.606   0.555   0.586   0.569   0.553   0.563   0.584   0.535   0.530   0.552   0.550   0.607   0.609   0.582   0.606   0.590   0.644   0.629   0.588   0.601   0.598   0.604   0.593   0.587   0.607   0.611   0.640   0.602   0.628   0.610   0.557
   317.20    0.598   0.607   0.588   0.603   0.631   0.595   0.592   0.606   0.630   0.577   0.555   0.576   0.567   0.553   0.537   0.557   0.573   0.603   0.574   0.546   0.552   0.561   0.610   0.601   0.618   0.614   0.645   0.603   0.583   0.558   0.561   0.600   0.593   0.559   0.551   0.505   0.489   0.491   0.531   0.518   0.522   0.498   0.501   0.494   0.527   0.571   0.588   0.622   0.582   0.570   0.570   0.543   0.573   0.594   0.619   0.602   0.608   0.628   0.629   0.591   0.641   0.671   0.659   0.618   0.574   0.598   0.622   0.609   0.584   0.531   0.533   0.519   0.484   0.485   0.477   0.482   0.461   0.509   0.527   0.510   0.483   0.463   0.484   0.448   0.441   0.473   0.464   0.477   0.452   0.479   0.493   0.502   0.517   0.515   0.507   0.516   0.520   0.494   0.514   0.519   0.492   0.531   0.522   0.523   0.510   0.533   0.580   0.582   0.572   0.556   0.555   0.587   0.584   0.587   0.607   0.562   0.607   0.612   0.602   0.569   0.583   0.610   0.570   0.587   0.523   0.537   0.519   0.514   0.547   0.553   0.539   0.523   0.508   0.527   0.531   0.568   0.559   0.519   0.531   0.492   0.483   0.474   0.487   0.480   0.453   0.467   0.469   0.476   0.516   0.564   0.545   0.566   0.566   0.580   0.571   0.593   0.625   0.612   0.617   0.589   0.575   0.628   0.613   0.577   0.557   0.535   0.516   0.535   0.556   0.554   0.515   0.569   0.552   0.591   0.590   0.617   0.599   0.618   0.628   0.616   0.565   0.612   0.584   0.615   0.619   0.588   0.597   0.602   0.666   0.650   0.650   0.656   0.605
   307.90    0.629   0.594   0.585   0.584   0.578   0.566   0.587   0.606   0.619   0.599   0.552   0.541   0.558   0.519   0.528   0.537   0.566   0.595   0.601   0.595   0.547   0.537   0.580   0.583   0.567   0.591   0.621   0.619   0.570   0.552   0.555   0.574   0.593   0.573   0.587   0.555   0.497   0.492   0.525   0.472   0.492   0.494   0.521   0.513   0.567   0.553   0.585   0.603   0.603   0.575   0.569   0.543   0.551   0.568   0.616   0.606   0.603   0.616   0.563   0.584   0.582   0.614   0.627   0.585   0.565   0.607   0.633   0.670   0.604   0.570   0.556   0.503   0.513   0.461   0.458   0.513   0.510   0.505   0.509   0.494   0.466   0.445   0.457   0.447   0.486   0.484   0.476   0.497   0.475   0.491   0.483   0.499   0.499   0.476   0.498   0.510   0.503   0.498   0.539   0.511   0.507   0.478   0.535   0.524   0.545   0.560   0.555   0.581   0.569   0.589   0.593   0.605   0.638   0.595   0.587   0.569   0.599   0.609   0.601   0.550   0.562   0.582   0.556   0.560   0.546   0.521   0.551   0.506   0.523   0.555   0.538   0.521   0.515   0.554   0.573   0.591   0.576   0.503   0.513   0.511   0.503   0.524   0.513   0.505   0.486   0.465   0.466   0.494   0.521   0.558   0.519   0.544   0.577   0.561   0.573   0.621   0.663   0.634   0.627   0.638   0.623   0.607   0.614   0.605   0.551   0.553   0.564   0.556   0.514   0.526   0.537   0.572   0.567   0.599   0.546   0.594   0.560   0.571   0.596   0.620   0.594   0.586   0.605   0.626   0.649   0.603   0.602   0.584   0.605   0.652   0.659   0.610   0.565
   298.60    0.546   0.571   0.586   0.554   0.578   0.571   0.555   0.551   0.589   0.600   0.560   0.533   0.552   0.574   0.551   0.564   0.561   0.594   0.630   0.618   0.585   0.572   0.552   0.563   0.580   0.633   0.625   0.607   0.587   0.569   0.574   0.623   0.640   0.638   0.636   0.558   0.519   0.486   0.515   0.485   0.543   0.504   0.512   0.517   0.561   0.498   0.537   0.575   0.578   0.538   0.535   0.529   0.565   0.555   0.566   0.605   0.593   0.604   0.579   0.586   0.560   0.578   0.602   0.587   0.566   0.598   0.636   0.623   0.596   0.593   0.573   0.547   0.537   0.504   0.503   0.501   0.510   0.478   0.486   0.504   0.478   0.466   0.486   0.499   0.502   0.466   0.494   0.471   0.503   0.507   0.469   0.486   0.476   0.486   0.491   0.500   0.484   0.482   0.519   0.525   0.527   0.501   0.525   0.528   0.522   0.551   0.560   0.592   0.561   0.580   0.552   0.550   0.570   0.613   0.597   0.587   0.619   0.614   0.599   0.580   0.548   0.544   0.516   0.528   0.542   0.529   0.544   0.518   0.539   0.539   0.550   0.552   0.565   0.573   0.587   0.586   0.583   0.569   0.562   0.571   0.577   0.566   0.552   0.539   0.487   0.496   0.499   0.538   0.558   0.544   0.562   0.562   0.605   0.601   0.580   0.625   0.649   0.688   0.711   0.659   0.657   0.637   0.657   0.636   0.591   0.521   0.545   0.567   0.565   0.553   0.598   0.567   0.560   0.552   0.554   0.560   0.557   0.576   0.602   0.589   0.626   0.600   0.620   0.652   0.606   0.573   0.608   0.593   0.615   0.632   0.652   0.583   0.588
   289.30    0.541   0.539   0.558   0.546   0.551   0.553   0.535   0.559   0.598   0.581   0.572   0.568   0.577   0.558   0.577   0.598   0.588   0.594   0.620   0.595   0.580   0.558   0.523   0.572   0.588   0.602   0.589   0.583   0.590   0.581   0.578   0.598   0.647   0.637   0.620   0.594   0.535   0.484   0.492   0.507   0.506   0.543   0.517   0.518   0.516   0.525   0.554   0.555   0.563   0.558   0.553   0.546   0.552   0.537   0.548   0.576   0.564   0.567   0.578   0.593   0.582   0.569   0.556   0.551   0.569   0.581   0.603   0.605   0.614   0.579   0.565   0.533   0.529   0.492   0.506   0.501   0.507   0.484   0.446   0.479   0.464   0.501   0.496   0.501   0.522   0.482   0.484   0.489   0.500   0.503   0.455   0.440   0.466   0.486   0.492   0.504   0.466   0.462   0.516   0.546   0.518   0.523   0.505   0.499   0.526   0.554   0.564   0.539   0.584   0.589   0.571   0.584   0.542   0.590   0.612   0.585   0.591   0.555   0.581   0.576   0.525   0.529   0.526   0.525   0.556   0.544   0.531   0.506   0.505   0.528   0.530   0.568   0.554   0.570   0.573   0.576   0.555   0.603   0.556   0.572   0.612   0.598   0.598   0.566   0.504   0.491   0.531   0.518   0.549   0.564   0.566   0.547   0.584   0.597   0.614   0.646   0.642   0.694   0.727   0.680   0.669   0.614   0.657   0.605   0.593   0.569   0.545   0.596   0.551   0.593   0.614   0.566   0.517   0.533   0.572   0.562   0.570   0.589   0.609   0.638   0.620   0.598   0.651   0.655   0.618   0.557   0.583   0.630   0.607   0.596   0.632   0.578   0.582
   280.00    0.539   0.523   0.520   0.499   0.513   0.544   0.562   0.613   0.604   0.583   0.572   0.590   0.581   0.582   0.578   0.622   0.610   0.625   0.588   0.639   0.617   0.607   0.556   0.540   0.607   0.611   0.605   0.598   0.582   0.580   0.560   0.580   0.596   0.614   0.594   0.601   0.574   0.531   0.474   0.502   0.527   0.527   0.547   0.511   0.542   0.548   0.546   0.575   0.554   0.567   0.568   0.562   0.545   0.582   0.549   0.545   0.551   0.568   0.558   0.554   0.568   0.565   0.572   0.563   0.570   0.568   0.601   0.582   0.611   0.572   0.554   0.524   0.528   0.536   0.513   0.480   0.478   0.490   0.439   0.479   0.471   0.495   0.507   0.501   0.506   0.509   0.505   0.457   0.469   0.459   0.484   0.463   0.470   0.473   0.501   0.490   0.475   0.492   0.500   0.514   0.496   0.507   0.512   0.516   0.571   0.557   0.577   0.549   0.599   0.635   0.600   0.580   0.573   0.607   0.605   0.593   0.587   0.531   0.568   0.551   0.515   0.499   0.497   0.477   0.507   0.549   0.520   0.504   0.503   0.524   0.539   0.527   0.538   0.581   0.572   0.610   0.600   0.584   0.546   0.570   0.586   0.625   0.580   0.554   0.540   0.494   0.544   0.535   0.552   0.582   0.592   0.591   0.609   0.591   0.613   0.617   0.664   0.696   0.712   0.677   0.631   0.613   0.631   0.618   0.644   0.574   0.578   0.588   0.568   0.544   0.556   0.586   0.533   0.529   0.578   0.600   0.569   0.572   0.590   0.603   0.599   0.599   0.638   0.620   0.637   0.572   0.608   0.634   0.640   0.642   0.609   0.608   0.602
   270.70    0.545   0.531   0.518   0.512   0.513   0.500   0.562   0.575   0.594   0.602   0.594   0.576   0.574   0.576   0.589   0.566   0.559   0.579   0.600   0.642   0.613   0.556   0.540   0.531   0.603   0.583   0.547   0.551   0.582   0.610   0.539   0.527   0.538   0.551   0.571   0.571   0.525   0.466   0.476   0.484   0.539   0.542   0.566   0.550   0.518   0.525   0.543   0.554   0.571   0.547   0.585   0.559   0.551   0.582   0.583   0.581   0.618   0.583   0.584   0.593   0.584   0.587   0.593   0.566   0.566   0.554   0.566   0.560   0.610   0.565   0.590   0.582   0.551   0.526   0.531   0.540   0.506   0.479   0.443   0.496   0.530   0.510   0.530   0.533   0.520   0.516   0.523   0.517   0.499   0.503   0.475   0.490   0.443   0.466   0.464   0.502   0.478   0.459   0.488   0.508   0.483   0.526   0.504   0.550   0.540   0.540   0.553   0.521   0.589   0.591   0.591   0.592   0.619   0.588   0.606   0.583   0.573   0.558   0.560   0.534   0.517   0.500   0.508   0.482   0.498   0.543   0.541   0.526   0.498   0.526   0.545   0.533   0.562   0.554   0.573   0.547   0.549   0.564   0.532   0.538   0.528   0.580   0.598   0.539   0.541   0.524   0.529   0.562   0.573   0.587   0.586   0.586   0.646   0.640   0.670   0.696   0.729   0.706   0.737   0.706   0.642   0.624   0.623   0.663   0.676   0.625   0.630   0.599   0.564   0.540   0.568   0.554   0.560   0.532   0.554   0.575   0.562   0.574   0.594   0.595   0.597   0.602   0.642   0.623   0.642   0.600   0.616   0.606   0.612   0.652   0.600   0.573   0.560
   261.40    0.549   0.548   0.539   0.548   0.494   0.504   0.555   0.570   0.580   0.600   0.550   0.534   0.526   0.511   0.555   0.551   0.599   0.576   0.606   0.613   0.599   0.583   0.560   0.569   0.586   0.591   0.546   0.534   0.550   0.549   0.531   0.536   0.513   0.536   0.542   0.534   0.530   0.471   0.486   0.514   0.558   0.550   0.574   0.518   0.532   0.529   0.529   0.541   0.555   0.566   0.617   0.608   0.572   0.605   0.585   0.596   0.595   0.615   0.571   0.558   0.585   0.606   0.630   0.582   0.570   0.578   0.562   0.570   0.615   0.588   0.600   0.595   0.550   0.530   0.528   0.512   0.521   0.492   0.473   0.480   0.505   0.527   0.525   0.510   0.543   0.531   0.529   0.533   0.515   0.490   0.486   0.465   0.453   0.477   0.477   0.522   0.543   0.496   0.490   0.522   0.501   0.531   0.512   0.560   0.551   0.557   0.558   0.541   0.598   0.559   0.581   0.584   0.602   0.545   0.551   0.529   0.551   0.572   0.561   0.557   0.558   0.505   0.476   0.501   0.518   0.561   0.544   0.504   0.537   0.556   0.585   0.537   0.499   0.508   0.529   0.527   0.508   0.530   0.526   0.545   0.569   0.552   0.581   0.573   0.561   0.538   0.550   0.582   0.556   0.584   0.579   0.623   0.624   0.622   0.656   0.670   0.658   0.678   0.730   0.707   0.698   0.629   0.645   0.654   0.653   0.629   0.618   0.589   0.561   0.552   0.543   0.562   0.552   0.546   0.571   0.531   0.528   0.554   0.600   0.619   0.600   0.576   0.625   0.635   0.589   0.630   0.641   0.654   0.660   0.673   0.637   0.565   0.515
   252.10    0.542   0.563   0.579   0.515   0.491   0.527   0.568   0.516   0.525   0.554   0.573   0.535   0.521   0.509   0.490   0.509   0.581   0.583   0.590   0.613   0.590   0.580   0.591   0.599   0.582   0.550   0.545   0.538   0.510   0.540   0.538   0.530   0.499   0.534   0.543   0.561   0.515   0.498   0.492   0.490   0.518   0.581   0.569   0.558   0.527   0.546   0.516   0.508   0.524   0.546   0.563   0.563   0.604   0.570   0.583   0.561   0.545   0.577   0.562   0.529   0.534   0.602   0.637   0.607   0.560   0.546   0.588   0.585   0.598   0.605   0.599   0.566   0.519   0.520   0.535   0.497   0.524   0.495   0.502   0.490   0.541   0.508   0.503   0.496   0.490   0.501   0.508   0.501   0.518   0.509   0.519   0.475   0.474   0.456   0.467   0.489   0.506   0.514   0.500   0.541   0.518   0.491   0.508   0.520   0.542   0.541   0.576   0.571   0.553   0.556   0.555   0.589   0.587   0.534   0.571   0.505   0.522   0.548   0.572   0.593   0.605   0.513   0.510   0.502   0.532   0.548   0.526   0.490   0.553   0.558   0.541   0.556   0.481   0.501   0.538   0.507   0.528   0.507   0.509   0.499   0.540   0.543   0.588   0.585   0.564   0.552   0.585   0.617   0.598   0.587   0.574   0.606   0.632   0.643   0.680   0.670   0.679   0.647   0.703   0.694   0.718   0.677   0.679   0.684   0.684   0.597   0.570   0.545   0.537   0.551   0.549   0.561   0.527   0.535   0.581   0.558   0.558   0.585   0.612   0.625   0.625   0.601   0.623   0.664   0.644   0.671   0.672   0.643   0.623   0.644   0.632   0.566   0.545
   242.80    0.497   0.537   0.538   0.510   0.549   0.561   0.581   0.524   0.528   0.574   0.574   0.525   0.480   0.482   0.490   0.527   0.568   0.569   0.579   0.621   0.612   0.593   0.617   0.618   0.585   0.569   0.531   0.523   0.519   0.530   0.526   0.518   0.497   0.516   0.522   0.559   0.566   0.510   0.477   0.485   0.504   0.533   0.524   0.574   0.557   0.554   0.549   0.504   0.484   0.516   0.537   0.540   0.553   0.565   0.566   0.571   0.547   0.559   0.525   0.520   0.518   0.566   0.587   0.574   0.584   0.581   0.585   0.580   0.632   0.616   0.585   0.540   0.506   0.524   0.503   0.508   0.531   0.502   0.522   0.534   0.509   0.506   0.465   0.477   0.474   0.472   0.495   0.514   0.503   0.527   0.519   0.541   0.510   0.468   0.470   0.490   0.517   0.524   0.531   0.577   0.548   0.548   0.542   0.522   0.523   0.504   0.542   0.578   0.535   0.547   0.536   0.549   0.548   0.548   0.550   0.539   0.572   0.582   0.579   0.595   0.549   0.531   0.497   0.511   0.536   0.520   0.494   0.542   0.565   0.573   0.539   0.534   0.528   0.523   0.516   0.488   0.523   0.514   0.494   0.487   0.539   0.531   0.584   0.564   0.584   0.593   0.612   0.597   0.587   0.598   0.579   0.622   0.633   0.685   0.677   0.678   0.648   0.668   0.676   0.714   0.724   0.696   0.719   0.694   0.695   0.623   0.599   0.571   0.589   0.548   0.552   0.549   0.550   0.554   0.553   0.530   0.577   0.568   0.623   0.628   0.587   0.613   0.575   0.619   0.665   0.660   0.630   0.642   0.622   0.592   0.579   0.579   0.503
   233.50    0.490   0.538   0.554   0.529   0.544   0.531   0.539   0.506   0.545   0.560   0.532   0.476   0.470   0.465   0.477   0.509   0.509   0.561   0.539   0.568   0.549   0.591   0.577   0.636   0.581   0.548   0.559   0.505   0.519   0.509   0.523   0.553   0.528   0.516   0.499   0.533   0.551   0.545   0.529   0.520   0.509   0.500   0.523   0.575   0.577   0.538   0.519   0.503   0.489   0.507   0.525   0.525   0.536   0.538   0.507   0.531   0.548   0.508   0.527   0.489   0.489   0.522   0.555   0.550   0.572   0.580   0.568   0.573   0.620   0.636   0.621   0.569   0.520   0.525   0.510   0.520   0.533   0.511   0.546   0.521   0.492   0.498   0.466   0.491   0.481   0.484   0.462   0.468   0.470   0.487   0.516   0.524   0.517   0.527   0.524   0.510   0.475   0.511   0.563   0.569   0.533   0.553   0.557   0.575   0.552   0.581   0.550   0.564   0.496   0.538   0.554   0.522   0.519   0.540   0.550   0.565   0.547   0.569   0.567   0.561   0.578   0.546   0.511   0.578   0.560   0.537   0.518   0.539   0.540   0.549   0.580   0.566   0.557   0.552   0.530   0.516   0.513   0.541   0.515   0.519   0.533   0.531   0.542   0.561   0.599   0.586   0.607   0.587   0.582   0.581   0.602   0.593   0.644   0.657   0.695   0.678   0.648   0.679   0.675   0.707   0.699   0.739   0.713   0.692   0.646   0.648   0.608   0.600   0.578   0.555   0.582   0.568   0.540   0.539   0.522   0.530   0.529   0.571   0.575   0.599   0.594   0.589   0.562   0.608   0.610   0.668   0.675   0.598   0.600   0.611   0.572   0.544   0.478
   224.20    0.480   0.503   0.520   0.533   0.550   0.496   0.549   0.517   0.493   0.513   0.513   0.499   0.444   0.454   0.478   0.488   0.488   0.538   0.539   0.535   0.552   0.595   0.595   0.586   0.592   0.597   0.578   0.532   0.492   0.503   0.525   0.550   0.526   0.543   0.535   0.496   0.519   0.552   0.544   0.545   0.507   0.497   0.531   0.581   0.558   0.576   0.537   0.511   0.487   0.489   0.533   0.565   0.521   0.536   0.516   0.506   0.491   0.484   0.456   0.481   0.535   0.576   0.557   0.525   0.526   0.549   0.578   0.536   0.584   0.616   0.615   0.545   0.523   0.519   0.483   0.476   0.516   0.524   0.516   0.529   0.521   0.517   0.496   0.465   0.477   0.493   0.443   0.459   0.474   0.488   0.502   0.524   0.548   0.517   0.535   0.538   0.528   0.525   0.545   0.588   0.576   0.606   0.592   0.611   0.590   0.590   0.593   0.528   0.550   0.556   0.577   0.539   0.509   0.545   0.522   0.553   0.547   0.524   0.512   0.517   0.509   0.491   0.509   0.531   0.556   0.551   0.525   0.544   0.544   0.567   0.586   0.558   0.573   0.530   0.534   0.571   0.522   0.573   0.538   0.504   0.555   0.535   0.550   0.542   0.567   0.607   0.594   0.546   0.556   0.541   0.577   0.564   0.644   0.666   0.662   0.673   0.658   0.674   0.694   0.681   0.676   0.704   0.675   0.661   0.645   0.599   0.622   0.588   0.579   0.557   0.573   0.623   0.588   0.526   0.515   0.497   0.526   0.539   0.534   0.557   0.585   0.611   0.598   0.624   0.618   0.677   0.625   0.602   0.565   0.613   0.550   0.546   0.514
   214.90    0.484   0.526   0.567   0.531   0.547   0.549   0.505   0.519   0.451   0.472   0.467   0.499   0.451   0.480   0.499   0.477   0.451   0.502   0.541   0.500   0.528   0.573   0.576   0.583   0.569   0.558   0.543   0.516   0.522   0.470   0.500   0.524   0.548   0.515   0.514   0.510   0.482   0.519   0.526   0.555   0.523   0.540   0.577   0.562   0.573   0.531   0.558   0.509   0.489   0.495   0.533   0.543   0.564   0.544   0.533   0.496   0.488   0.475   0.515   0.539   0.596   0.597   0.587   0.535   0.542   0.571   0.581   0.559   0.544   0.554   0.584   0.522   0.518   0.501   0.465   0.492   0.513   0.535   0.528   0.524   0.498   0.534   0.485   0.472   0.496   0.478   0.464   0.466   0.484   0.485   0.516   0.530   0.511   0.549   0.534   0.523   0.514   0.524   0.543   0.552   0.572   0.582   0.607   0.614   0.578   0.604   0.567   0.542   0.554   0.542   0.567   0.538   0.536   0.520   0.560   0.550   0.542   0.532   0.524   0.540   0.514   0.504   0.535   0.548   0.514   0.520   0.551   0.531   0.543   0.572   0.530   0.570   0.561   0.581   0.564   0.583   0.554   0.557   0.534   0.554   0.545   0.540   0.533   0.578   0.559   0.578   0.604   0.587   0.566   0.554   0.544   0.554   0.621   0.669   0.680   0.658   0.687   0.708   0.697   0.663   0.668   0.676   0.639   0.645   0.639   0.635   0.647   0.637   0.637   0.588   0.620   0.597   0.566   0.551   0.560   0.575   0.517   0.544   0.540   0.567   0.536   0.564   0.595   0.583   0.592   0.626   0.631   0.551   0.544   0.574   0.593   0.583   0.540
   205.60    0.476   0.498   0.486   0.525   0.538   0.537   0.513   0.486   0.507   0.452   0.463   0.485   0.459   0.467   0.489   0.464   0.476   0.490   0.542   0.512   0.512   0.563   0.555   0.554   0.565   0.511   0.519   0.512   0.510   0.473   0.485   0.515   0.528   0.508   0.498   0.518   0.508   0.502   0.537   0.524   0.528   0.567   0.576   0.591   0.540   0.553   0.555   0.512   0.517   0.526   0.516   0.552   0.577   0.548   0.520   0.482   0.495   0.483   0.505   0.564   0.589   0.587   0.586   0.575   0.593   0.538   0.562   0.542   0.518   0.520   0.542   0.534   0.508   0.480   0.495   0.475   0.530   0.591   0.574   0.567   0.561   0.567   0.532   0.492   0.504   0.497   0.452   0.451   0.477   0.486   0.472   0.496   0.540   0.534   0.553   0.535   0.538   0.512   0.550   0.541   0.541   0.574   0.574   0.606   0.609   0.591   0.558   0.534   0.560   0.518   0.500   0.514   0.486   0.521   0.531   0.543   0.523   0.504   0.520   0.534   0.519   0.526   0.561   0.552   0.549   0.553   0.523   0.519   0.522   0.529   0.547   0.558   0.548   0.617   0.577   0.577   0.560   0.581   0.555   0.550   0.569   0.546   0.538   0.563   0.524   0.581   0.569   0.530   0.531   0.533   0.542   0.567   0.592   0.677   0.703   0.661   0.679   0.661   0.697   0.660   0.656   0.684   0.641   0.628   0.625   0.599   0.619   0.618   0.625   0.599   0.620   0.582   0.544   0.533   0.532   0.566   0.537   0.542   0.544   0.543   0.556   0.550   0.573   0.585   0.577   0.610   0.614   0.568   0.542   0.579   0.608   0.603   0.557
   196.30    0.484   0.485   0.485   0.551   0.540   0.527   0.501   0.497   0.519   0.483   0.469   0.465   0.487   0.510   0.501   0.479   0.487   0.497   0.515   0.539   0.491   0.526   0.573   0.545   0.522   0.512   0.476   0.504   0.490   0.480   0.479   0.493   0.488   0.507   0.532   0.538   0.545   0.535   0.534   0.520   0.545   0.564   0.547   0.547   0.510   0.551   0.512   0.503   0.514   0.535   0.533   0.525   0.538   0.549   0.518   0.518   0.559   0.556   0.539   0.560   0.576   0.575   0.588   0.597   0.590   0.561   0.575   0.547   0.555   0.533   0.538   0.526   0.505   0.498   0.500   0.513   0.544   0.549   0.563   0.599   0.584   0.536   0.541   0.492   0.497   0.460   0.450   0.460   0.473   0.448   0.471   0.455   0.508   0.497   0.495   0.528   0.537   0.559   0.559   0.513   0.551   0.565   0.564   0.583   0.576   0.563   0.514   0.523   0.513   0.497   0.526   0.530   0.510   0.518   0.539   0.497   0.482   0.521   0.538   0.531   0.504   0.538   0.531   0.560   0.534   0.544   0.532   0.520   0.555   0.558   0.556   0.535   0.578   0.586   0.565   0.568   0.569   0.562   0.563   0.548   0.581   0.574   0.549   0.564   0.552   0.536   0.569   0.566   0.528   0.553   0.562   0.588   0.615   0.657   0.636   0.636   0.639   0.650   0.656   0.674   0.654   0.700   0.678   0.658   0.580   0.614   0.632   0.630   0.617   0.630   0.617   0.595   0.537   0.549   0.502   0.503   0.511   0.514   0.523   0.545   0.521   0.573   0.557   0.556   0.551   0.569   0.573   0.556   0.579   0.589   0.594   0.591   0.531
   187.00    0.494   0.455   0.450   0.484   0.479   0.485   0.493   0.519   0.508   0.490   0.473   0.478   0.465   0.454   0.508   0.546   0.555   0.544   0.527   0.533   0.531   0.534   0.546   0.544   0.475   0.485   0.517   0.497   0.504   0.493   0.507   0.512   0.493   0.535   0.546   0.585   0.587   0.586   0.576   0.561   0.539   0.556   0.543   0.525   0.502   0.498   0.502   0.496   0.507   0.494   0.510   0.505   0.498   0.528   0.490   0.496   0.516   0.518   0.564   0.561   0.567   0.594   0.616   0.612   0.598   0.587   0.563   0.523   0.532   0.541   0.533   0.494   0.499   0.505   0.504   0.521   0.519   0.539   0.561   0.575   0.548   0.537   0.507   0.484   0.456   0.477   0.530   0.506   0.522   0.489   0.497   0.454   0.475   0.491   0.498   0.540   0.524   0.539   0.541   0.517   0.531   0.561   0.562   0.547   0.525   0.526   0.497   0.492   0.482   0.513   0.525   0.562   0.539   0.491   0.476   0.526   0.500   0.524   0.526   0.496   0.487   0.505   0.509   0.519   0.517   0.539   0.563   0.539   0.554   0.583   0.575   0.557   0.511   0.557   0.565   0.554   0.562   0.556   0.558   0.526   0.593   0.612   0.571   0.584   0.573   0.574   0.572   0.567   0.540   0.543   0.571   0.598   0.579   0.584   0.587   0.626   0.594   0.618   0.661   0.660   0.628   0.644   0.619   0.590   0.582   0.587   0.610   0.588   0.610   0.584   0.584   0.551   0.547   0.526   0.479   0.465   0.472   0.479   0.496   0.475   0.513   0.580   0.548   0.565   0.493   0.535   0.535   0.515   0.603   0.599   0.594   0.538   0.526
   177.70    0.521   0.494   0.462   0.461   0.466   0.486   0.482   0.520   0.499   0.523   0.470   0.442   0.458   0.432   0.505   0.552   0.563   0.572   0.575   0.566   0.548   0.525   0.537   0.504   0.495   0.520   0.546   0.503   0.495   0.504   0.488   0.519   0.504   0.526   0.547   0.554   0.562   0.547   0.562   0.554   0.548   0.557   0.510   0.510   0.524   0.494   0.498   0.480   0.469   0.479   0.511   0.470   0.508   0.525   0.497   0.478   0.498   0.524   0.558   0.549   0.538   0.571   0.569   0.559   0.574   0.588   0.559   0.535   0.549   0.565   0.532   0.481   0.508   0.513   0.494   0.531   0.553   0.559   0.579   0.567   0.542   0.532   0.505   0.445   0.445   0.447   0.488   0.493   0.494   0.506   0.482   0.474   0.460   0.481   0.468   0.502   0.495   0.507   0.509   0.508   0.538   0.509   0.512   0.513   0.545   0.506   0.504   0.473   0.500   0.547   0.529   0.556   0.532   0.541   0.545   0.523   0.529   0.534   0.534   0.505   0.490   0.490   0.471   0.483   0.516   0.513   0.563   0.567   0.593   0.579   0.531   0.536   0.534   0.559   0.557   0.535   0.560   0.534   0.536   0.526   0.585   0.603   0.602   0.583   0.595   0.606   0.607   0.623   0.588   0.554   0.580   0.608   0.597   0.616   0.553   0.572   0.580   0.637   0.619   0.602   0.620   0.601   0.595   0.593   0.581   0.587   0.588   0.602   0.568   0.564   0.566   0.545   0.532   0.509   0.480   0.477   0.457   0.469   0.464   0.494   0.539   0.542   0.578   0.550   0.517   0.537   0.529   0.518   0.561   0.569   0.551   0.522   0.501
   168.40    0.539   0.552   0.506   0.490   0.472   0.444   0.478   0.486   0.468   0.482   0.484   0.447   0.453   0.481   0.513   0.532   0.576   0.555   0.589   0.576   0.551   0.538   0.541   0.539   0.524   0.524   0.573   0.529   0.521   0.515   0.509   0.511   0.499   0.511   0.522   0.559   0.535   0.552   0.588   0.532   0.574   0.559   0.550   0.576   0.564   0.542   0.523   0.494   0.497   0.525   0.507   0.500   0.507   0.518   0.526   0.490   0.506   0.531   0.545   0.518   0.534   0.537   0.541   0.550   0.541   0.544   0.541   0.510   0.524   0.572   0.541   0.511   0.489   0.484   0.493   0.537   0.534   0.539   0.550   0.548   0.580   0.536   0.513   0.482   0.462   0.448   0.461   0.482   0.507   0.509   0.504   0.491   0.467   0.472   0.480   0.530   0.496   0.504   0.500   0.502   0.501   0.528   0.524   0.516   0.506   0.508   0.499   0.499   0.499   0.502   0.476   0.538   0.563   0.543   0.536   0.526   0.546   0.556   0.590   0.557   0.536   0.530   0.483   0.535   0.566   0.571   0.586   0.608   0.636   0.571   0.512   0.519   0.516   0.503   0.512   0.548   0.539   0.537   0.562   0.562   0.557   0.576   0.605   0.585   0.590   0.594   0.611   0.601   0.596   0.563   0.558   0.614   0.582   0.545   0.520   0.536   0.570   0.613   0.585   0.627   0.588   0.593   0.586   0.620   0.603   0.591   0.613   0.562   0.546   0.536   0.515   0.546   0.549   0.519   0.508   0.492   0.506   0.490   0.498   0.479   0.538   0.551   0.562   0.551   0.576   0.541   0.549   0.552   0.551   0.520   0.538   0.524   0.449
   159.10    0.550   0.528   0.530   0.473   0.459   0.498   0.452   0.440   0.454   0.448   0.460   0.463   0.458   0.493   0.561   0.545   0.570   0.572   0.573   0.565   0.551   0.553   0.524   0.552   0.516   0.530   0.536   0.537   0.532   0.535   0.508   0.502   0.498   0.497   0.508   0.529   0.536   0.570   0.605   0.555   0.571   0.577   0.581   0.590   0.561   0.520   0.532   0.503   0.492   0.505   0.506   0.465   0.478   0.503   0.456   0.507   0.520   0.539   0.531   0.485   0.490   0.474   0.494   0.527   0.531   0.523   0.527   0.515   0.501   0.561   0.533   0.534   0.508   0.477   0.479   0.487   0.511   0.514   0.505   0.524   0.515   0.485   0.456   0.465   0.452   0.449   0.463   0.462   0.522   0.562   0.528   0.477   0.445   0.479   0.489   0.500   0.540   0.526   0.491   0.512   0.481   0.537   0.539   0.530   0.515   0.513   0.508   0.516   0.524   0.497   0.503   0.552   0.528   0.536   0.510   0.501   0.555   0.554   0.530   0.568   0.574   0.555   0.556   0.527   0.533   0.566   0.569   0.597   0.638   0.602   0.577   0.552   0.555   0.536   0.520   0.547   0.556   0.540   0.556   0.586   0.584   0.564   0.614   0.614   0.604   0.607   0.601   0.614   0.572   0.589   0.572   0.598   0.588   0.532   0.524   0.524   0.579   0.598   0.615   0.593   0.571   0.529   0.540   0.600   0.660   0.638   0.633   0.581   0.557   0.562   0.565   0.562   0.557   0.559   0.539   0.529   0.531   0.537   0.527   0.526   0.504   0.569   0.522   0.546   0.575   0.544   0.518   0.564   0.560   0.562   0.551   0.527   0.466
   149.80    0.549   0.521   0.524   0.522   0.508   0.512   0.487   0.451   0.453   0.457   0.447   0.454   0.491   0.519   0.574   0.575   0.558   0.596   0.583   0.588   0.578   0.556   0.552   0.563   0.561   0.569   0.544   0.561   0.554   0.527   0.519   0.522   0.486   0.474   0.483   0.529   0.550   0.564   0.600   0.584   0.545   0.539   0.579   0.553   0.541   0.540   0.507   0.499   0.517   0.494   0.513   0.509   0.465   0.493   0.482   0.512   0.522   0.522   0.508   0.489   0.485   0.519   0.475   0.476   0.474   0.483   0.503   0.515   0.501   0.535   0.562   0.544   0.538   0.508   0.509   0.505   0.499   0.470   0.505   0.541   0.491   0.497   0.470   0.456   0.417   0.444   0.451   0.505   0.519   0.525   0.517   0.525   0.487   0.481   0.502   0.525   0.576   0.541   0.494   0.478   0.491   0.494   0.550   0.522   0.521   0.530   0.509   0.522   0.530   0.515   0.513   0.533   0.511   0.517   0.508   0.547   0.569   0.563   0.542   0.547   0.590   0.577   0.545   0.583   0.566   0.545   0.560   0.574   0.608   0.609   0.577   0.576   0.576   0.563   0.563   0.561   0.556   0.558   0.561   0.589   0.565   0.589   0.624   0.606   0.595   0.605   0.564   0.549   0.574   0.588   0.587   0.611   0.551   0.529   0.532   0.582   0.595   0.599   0.578   0.559   0.578   0.571   0.560   0.571   0.624   0.624   0.576   0.585   0.546   0.568   0.556   0.548   0.538   0.523   0.524   0.505   0.486   0.521   0.531   0.494   0.526   0.540   0.573   0.531   0.528   0.547   0.523   0.553   0.559   0.535   0.556   0.483   0.472
   140.50    0.553   0.538   0.511   0.464   0.508   0.496   0.451   0.455   0.465   0.476   0.461   0.451   0.467   0.538   0.568   0.574   0.590   0.608   0.595   0.621   0.606   0.570   0.579   0.589   0.589   0.592   0.569   0.523   0.539   0.519   0.550   0.541   0.520   0.532   0.513   0.531   0.513   0.588   0.600   0.584   0.597   0.558   0.574   0.555   0.506   0.490   0.488   0.533   0.547   0.534   0.495   0.468   0.457   0.483   0.473   0.475   0.473   0.484   0.474   0.489   0.533   0.512   0.473   0.455   0.455   0.471   0.479   0.502   0.530   0.530   0.561   0.577   0.575   0.531   0.486   0.472   0.517   0.515   0.516   0.541   0.515   0.469   0.476   0.460   0.469   0.443   0.463   0.459   0.522   0.549   0.534   0.549   0.537   0.507   0.553   0.548   0.564   0.539   0.494   0.508   0.506   0.503   0.565   0.576   0.558   0.523   0.521   0.540   0.541   0.547   0.532   0.478   0.523   0.524   0.550   0.564   0.591   0.596   0.564   0.552   0.593   0.636   0.609   0.589   0.539   0.526   0.579   0.586   0.598   0.595   0.585   0.576   0.612   0.594   0.592   0.585   0.590   0.559   0.568   0.598   0.608   0.607   0.631   0.621   0.617   0.584   0.540   0.527   0.527   0.581   0.616   0.616   0.562   0.529   0.547   0.605   0.602   0.593   0.610   0.585   0.570   0.572   0.611   0.629   0.609   0.607   0.610   0.587   0.587   0.583   0.587   0.579   0.548   0.510   0.463   0.492   0.474   0.497   0.487   0.500   0.513   0.531   0.533   0.560   0.537   0.543   0.575   0.549   0.509   0.527   0.523   0.532   0.464
   131.20    0.594   0.562   0.499   0.521   0.504   0.486   0.479   0.446   0.447   0.441   0.479   0.448   0.466   0.529   0.546   0.568   0.608   0.576   0.622   0.601   0.614   0.656   0.645   0.602   0.620   0.611   0.550   0.543   0.517   0.517   0.505   0.542   0.582   0.601   0.565   0.559   0.558   0.621   0.640   0.609   0.584   0.544   0.586   0.553   0.527   0.514   0.514   0.529   0.527   0.541   0.530   0.514   0.450   0.465   0.461   0.469   0.477   0.490   0.515   0.510   0.475   0.500   0.471   0.492   0.464   0.470   0.486   0.494   0.492   0.549   0.567   0.554   0.577   0.573   0.526   0.509   0.510   0.506   0.541   0.531   0.521   0.469   0.452   0.462   0.455   0.439   0.452   0.480   0.497   0.502   0.504   0.501   0.521   0.532   0.559   0.514   0.547   0.529   0.539   0.574   0.540   0.555   0.537   0.593   0.572   0.547   0.580   0.548   0.578   0.551   0.563   0.568   0.542   0.532   0.526   0.582   0.588   0.585   0.572   0.566   0.610   0.614   0.617   0.615   0.590   0.575   0.611   0.581   0.619   0.627   0.634   0.626   0.621   0.612   0.594   0.577   0.629   0.602   0.563   0.605   0.628   0.632   0.626   0.581   0.574   0.557   0.546   0.523   0.555   0.590   0.613   0.591   0.568   0.557   0.567   0.579   0.591   0.613   0.604   0.577   0.603   0.586   0.593   0.600   0.599   0.600   0.591   0.628   0.644   0.621   0.635   0.594   0.559   0.502   0.477   0.506   0.505   0.481   0.494   0.473   0.503   0.528   0.511   0.524   0.525   0.528   0.558   0.531   0.552   0.524   0.483   0.511   0.536
   121.90    0.634   0.595   0.562   0.525   0.533   0.509   0.484   0.467   0.476   0.487   0.468   0.482   0.501   0.535   0.551   0.553   0.597   0.586   0.610   0.627   0.613   0.630   0.641   0.605   0.631   0.586   0.582   0.545   0.505   0.502   0.512   0.544   0.556   0.560   0.565   0.525   0.558   0.577   0.601   0.598   0.567   0.537   0.566   0.579   0.565   0.595   0.542   0.484   0.519   0.502   0.520   0.495   0.434   0.439   0.465   0.489   0.507   0.479   0.497   0.480   0.464   0.489   0.490   0.500   0.482   0.472   0.494   0.476   0.479   0.547   0.523   0.527   0.546   0.530   0.529   0.509   0.534   0.483   0.488   0.522   0.511   0.480   0.473   0.443   0.492   0.483   0.498   0.455   0.508   0.499   0.498   0.510   0.516   0.512   0.536   0.527   0.551   0.560   0.526   0.590   0.616   0.564   0.553   0.562   0.544   0.553   0.557   0.556   0.567   0.543   0.565   0.572   0.513   0.524   0.549   0.578   0.612   0.598   0.569   0.588   0.638   0.646   0.643   0.654   0.613   0.626   0.627   0.638   0.628   0.610   0.626   0.613   0.637   0.655   0.620   0.678   0.668   0.606   0.627   0.618   0.622   0.613   0.601   0.564   0.554   0.564   0.534   0.563   0.596   0.582   0.583   0.585   0.590   0.579   0.556   0.591   0.599   0.579   0.605   0.620   0.584   0.580   0.526   0.587   0.584   0.572   0.603   0.620   0.620   0.652   0.612   0.604   0.583   0.564   0.537   0.540   0.536   0.521   0.516   0.510   0.520   0.526   0.486   0.513   0.503   0.512   0.566   0.533   0.569   0.554   0.557   0.518   0.514
   112.60    0.592   0.606   0.632   0.607   0.581   0.569   0.470   0.481   0.467   0.487   0.479   0.516   0.504   0.505   0.514   0.551   0.574   0.605   0.610   0.639   0.667   0.671   0.622   0.633   0.597   0.560   0.545   0.539   0.519   0.483   0.516   0.514   0.512   0.536   0.585   0.566   0.572   0.601   0.579   0.564   0.569   0.550   0.543   0.613   0.590   0.618   0.587   0.531   0.486   0.479   0.518   0.490   0.407   0.436   0.453   0.484   0.476   0.475   0.494   0.465   0.480   0.475   0.513   0.529   0.514   0.499   0.505   0.487   0.510   0.506   0.530   0.514   0.493   0.517   0.500   0.558   0.520   0.476   0.519   0.500   0.500   0.495   0.491   0.513   0.503   0.500   0.480   0.470   0.493   0.509   0.481   0.501   0.505   0.540   0.545   0.513   0.543   0.537   0.601   0.593   0.573   0.599   0.569   0.532   0.550   0.580   0.581   0.565   0.557   0.551   0.534   0.552   0.551   0.551   0.568   0.611   0.612   0.575   0.600   0.609   0.606   0.637   0.625   0.612   0.669   0.637   0.652   0.624   0.618   0.588   0.629   0.621   0.620   0.643   0.645   0.653   0.673   0.643   0.637   0.626   0.619   0.624   0.576   0.582   0.563   0.576   0.573   0.584   0.593   0.602   0.611   0.597   0.558   0.563   0.579   0.565   0.552   0.566   0.606   0.612   0.602   0.589   0.552   0.567   0.567   0.568   0.584   0.621   0.607   0.594   0.591   0.614   0.580   0.571   0.523   0.499   0.503   0.511   0.516   0.536   0.528   0.522   0.525   0.537   0.513   0.534   0.551   0.518   0.557   0.545   0.555   0.517   0.530
   103.30    0.565   0.600   0.613   0.612   0.558   0.573   0.544   0.495   0.469   0.489   0.510   0.488   0.537   0.501   0.520   0.553   0.587   0.614   0.650   0.670   0.628   0.642   0.665   0.625   0.610   0.539   0.547   0.540   0.529   0.563   0.529   0.532   0.533   0.537   0.557   0.532   0.579   0.568   0.571   0.566   0.530   0.523   0.538   0.558   0.571   0.583   0.556   0.550   0.487   0.487   0.467   0.474   0.446   0.422   0.437   0.476   0.464   0.463   0.441   0.446   0.466   0.477   0.512   0.515   0.486   0.515   0.536   0.480   0.514   0.504   0.533   0.528   0.509   0.513   0.532   0.495   0.511   0.503   0.505   0.525   0.497   0.476   0.454   0.488   0.501   0.510   0.485   0.509   0.534   0.520   0.523   0.502   0.534   0.517   0.564   0.589   0.524   0.590   0.619   0.581   0.573   0.546   0.559   0.569   0.594   0.572   0.551   0.550   0.555   0.539   0.525   0.574   0.583   0.575   0.573   0.607   0.595   0.624   0.622   0.626   0.625   0.638   0.645   0.598   0.626   0.632   0.630   0.619   0.611   0.634   0.629   0.616   0.616   0.606   0.582   0.634   0.659   0.677   0.594   0.619   0.632   0.599   0.568   0.589   0.562   0.568   0.574   0.577   0.616   0.620   0.624   0.561   0.582   0.537   0.557   0.576   0.534   0.549   0.588   0.596   0.576   0.546   0.521   0.577   0.547   0.567   0.577   0.558   0.574   0.557   0.586   0.590   0.579   0.558   0.507   0.506   0.541   0.515   0.509   0.511   0.504   0.537   0.523   0.551   0.532   0.542   0.561   0.554   0.541   0.539   0.567   0.539   0.549
    94.00    0.550   0.568   0.582   0.568   0.555   0.563   0.586   0.560   0.502   0.508   0.528   0.513   0.517   0.523   0.566   0.574   0.553   0.579   0.629   0.630   0.632   0.612   0.650   0.678   0.622   0.554   0.530   0.563   0.576   0.588   0.556   0.559   0.539   0.561   0.549   0.557   0.548   0.557   0.525   0.522   0.535   0.509   0.529   0.508   0.555   0.560   0.542   0.531   0.511   0.502   0.433   0.445   0.417   0.424   0.444   0.455   0.448   0.464   0.445   0.466   0.457   0.460   0.485   0.495   0.482   0.542   0.540   0.506   0.503   0.522   0.533   0.520   0.475   0.527   0.560   0.505   0.478   0.460   0.456   0.478   0.481   0.447   0.442   0.467   0.476   0.480   0.504   0.533   0.544   0.527   0.505   0.497   0.541   0.533   0.561   0.570   0.532   0.569   0.610   0.624   0.581   0.571   0.558   0.589   0.620   0.593   0.553   0.539   0.563   0.518   0.546   0.595   0.629   0.605   0.589   0.593   0.601   0.636   0.638   0.626   0.663   0.643   0.609   0.623   0.652   0.647   0.614   0.628   0.636   0.594   0.622   0.582   0.591   0.613   0.632   0.601   0.671   0.653   0.639   0.587   0.594   0.583   0.590   0.580   0.530   0.544   0.558   0.578   0.624   0.641   0.652   0.595   0.582   0.585   0.560   0.620   0.551   0.565   0.602   0.585   0.573   0.544   0.524   0.581   0.617   0.578   0.558   0.536   0.545   0.593   0.605   0.547   0.556   0.553   0.539   0.554   0.579   0.510   0.475   0.495   0.472   0.503   0.508   0.528   0.550   0.489   0.502   0.504   0.561   0.547   0.524   0.546   0.534
    84.70    0.496   0.516   0.564   0.547   0.552   0.585   0.579   0.564   0.548   0.546   0.552   0.527   0.531   0.518   0.520   0.538   0.554   0.544   0.569   0.586   0.625   0.635   0.617   0.659   0.658   0.605   0.567   0.594   0.563   0.559   0.520   0.523   0.534   0.520   0.490   0.540   0.522   0.530   0.544   0.528   0.527   0.555   0.551   0.522   0.556   0.549   0.528   0.526   0.508   0.488   0.458   0.462   0.440   0.451   0.431   0.420   0.407   0.425   0.418   0.451   0.490   0.497   0.437   0.473   0.540   0.542   0.556   0.497   0.514   0.498   0.498   0.496   0.514   0.515   0.546   0.548   0.504   0.467   0.491   0.486   0.473   0.458   0.463   0.459   0.474   0.482   0.498   0.519   0.519   0.544   0.522   0.491   0.527   0.514   0.536   0.533   0.543   0.557   0.584   0.604   0.569   0.578   0.635   0.604   0.643   0.575   0.562   0.559   0.552   0.553   0.561   0.596   0.616   0.616   0.605   0.614   0.623   0.626   0.616   0.648   0.667   0.626   0.628   0.662   0.686   0.652   0.616   0.625   0.591   0.610   0.610   0.601   0.637   0.657   0.623   0.607   0.649   0.600   0.606   0.552   0.543   0.546   0.573   0.584   0.557   0.543   0.549   0.573   0.607   0.621   0.649   0.599   0.548   0.561   0.591   0.606   0.586   0.575   0.608   0.603   0.579   0.555   0.579   0.582   0.582   0.558   0.539   0.542   0.563   0.569   0.584   0.579   0.572   0.538   0.537   0.577   0.560   0.548   0.511   0.497   0.494   0.485   0.511   0.534   0.531   0.507   0.497   0.491   0.500   0.545   0.540   0.520   0.541
    75.40    0.484   0.508   0.534   0.538   0.564   0.604   0.580   0.570   0.585   0.571   0.561   0.559   0.558   0.531   0.552   0.520   0.565   0.557   0.613   0.609   0.652   0.645   0.660   0.669   0.661   0.601   0.583   0.576   0.546   0.541   0.518   0.547   0.531   0.517   0.482   0.490   0.519   0.500   0.518   0.534   0.552   0.578   0.532   0.538   0.518   0.532   0.516   0.513   0.507   0.506   0.476   0.460   0.455   0.431   0.417   0.403   0.381   0.420   0.441   0.441   0.450   0.458   0.440   0.482   0.471   0.496   0.536   0.524   0.510   0.511   0.513   0.513   0.552   0.518   0.554   0.550   0.513   0.500   0.475   0.483   0.449   0.444   0.448   0.462   0.447   0.502   0.515   0.505   0.551   0.527   0.535   0.532   0.493   0.495   0.495   0.537   0.567   0.579   0.569   0.587   0.585   0.595   0.639   0.609   0.648   0.606   0.581   0.571   0.576   0.580   0.598   0.577   0.611   0.586   0.623   0.596   0.633   0.638   0.631   0.683   0.691   0.695   0.679   0.678   0.708   0.672   0.680   0.687   0.639   0.651   0.668   0.703   0.662   0.652   0.618   0.612   0.603   0.623   0.568   0.540   0.532   0.560   0.576   0.592   0.575   0.574   0.584   0.572   0.597   0.623   0.652   0.593   0.563   0.566   0.595   0.627   0.628   0.627   0.640   0.619   0.602   0.584   0.556   0.588   0.598   0.566   0.542   0.539   0.545   0.544   0.576   0.581   0.579   0.581   0.546   0.581   0.590   0.540   0.519   0.523   0.501   0.478   0.511   0.522   0.513   0.522   0.510   0.508   0.498   0.500   0.483   0.497   0.542
    66.10    0.518   0.524   0.489   0.496   0.557   0.577   0.549   0.593   0.586   0.613   0.572   0.551   0.575   0.565   0.545   0.545   0.543   0.568   0.566   0.640   0.618   0.647   0.685   0.689   0.648   0.596   0.653   0.591   0.591   0.586   0.572   0.581   0.559   0.494   0.528   0.509   0.513   0.532   0.500   0.531   0.519   0.536   0.545   0.492   0.520   0.534   0.544   0.510   0.465   0.531   0.522   0.456   0.457   0.445   0.408   0.426   0.414   0.394   0.408   0.453   0.425   0.429   0.425   0.446   0.466   0.449   0.488   0.473   0.494   0.487   0.482   0.498   0.520   0.566   0.550   0.548   0.543   0.515   0.463   0.469   0.477   0.465   0.478   0.466   0.495   0.503   0.527   0.537   0.532   0.520   0.496   0.466   0.497   0.530   0.541   0.554   0.566   0.554   0.584   0.603   0.602   0.587   0.601   0.606   0.610   0.607   0.603   0.553   0.543   0.571   0.574   0.597   0.633   0.603   0.611   0.610   0.619   0.641   0.701   0.711   0.715   0.718   0.720   0.740   0.759   0.725   0.699   0.684   0.670   0.684   0.703   0.699   0.672   0.638   0.628   0.586   0.641   0.648   0.614   0.595   0.568   0.529   0.560   0.572   0.561   0.598   0.597   0.597   0.657   0.645   0.666   0.636   0.595   0.610   0.643   0.689   0.709   0.686   0.680   0.615   0.602   0.650   0.604   0.635   0.584   0.564   0.541   0.530   0.572   0.558   0.567   0.580   0.559   0.570   0.577   0.624   0.587   0.545   0.523   0.569   0.585   0.535   0.536   0.517   0.515   0.478   0.470   0.468   0.469   0.471   0.467   0.500   0.540
    56.80    0.497   0.501   0.491   0.485   0.487   0.532   0.531   0.550   0.583   0.603   0.570   0.563   0.570   0.569   0.538   0.531   0.520   0.567   0.608   0.579   0.644   0.642   0.659   0.636   0.644   0.644   0.647   0.634   0.606   0.584   0.582   0.562   0.555   0.534   0.528   0.524   0.511   0.541   0.564   0.520   0.526   0.544   0.526   0.518   0.506   0.537   0.506   0.471   0.491   0.498   0.505   0.477   0.479   0.466   0.448   0.416   0.427   0.452   0.477   0.437   0.452   0.454   0.484   0.467   0.492   0.487   0.490   0.492   0.506   0.477   0.462   0.513   0.552   0.568   0.567   0.529   0.539   0.543   0.465   0.470   0.471   0.503   0.482   0.501   0.469   0.473   0.494   0.498   0.487   0.485   0.481   0.510   0.531   0.495   0.550   0.554   0.588   0.585   0.534   0.570   0.571   0.550   0.562   0.621   0.623   0.608   0.566   0.578   0.572   0.578   0.574   0.624   0.592   0.611   0.634   0.643   0.611   0.653   0.684   0.685   0.677   0.685   0.729   0.702   0.713   0.725   0.716   0.659   0.678   0.660   0.722   0.740   0.674   0.697   0.630   0.649   0.588   0.579   0.602   0.550   0.583   0.563   0.568   0.578   0.587   0.590   0.603   0.627   0.664   0.643   0.594   0.621   0.649   0.644   0.670   0.682   0.682   0.653   0.634   0.619   0.656   0.650   0.628   0.610   0.605   0.605   0.597   0.545   0.538   0.570   0.574   0.556   0.558   0.556   0.559   0.585   0.587   0.547   0.536   0.568   0.604   0.569   0.551   0.495   0.501   0.470   0.476   0.502   0.464   0.462   0.456   0.518   0.513
    47.50    0.500   0.475   0.481   0.499   0.467   0.511   0.543   0.574   0.581   0.612   0.598   0.611   0.620   0.569   0.552   0.547   0.540   0.572   0.579   0.576   0.621   0.631   0.639   0.629   0.631   0.631   0.680   0.642   0.602   0.626   0.648   0.604   0.579   0.564   0.528   0.556   0.518   0.564   0.546   0.567   0.538   0.538   0.537   0.554   0.531   0.533   0.483   0.452   0.491   0.507   0.517   0.506   0.440   0.443   0.444   0.450   0.444   0.464   0.496   0.485   0.450   0.455   0.472   0.490   0.473   0.503   0.473   0.481   0.452   0.470   0.480   0.534   0.562   0.579   0.555   0.563   0.505   0.482   0.457   0.464   0.450   0.514   0.482   0.486   0.489   0.466   0.482   0.477   0.500   0.481   0.478   0.500   0.511   0.500   0.508   0.535   0.527   0.583   0.504   0.539   0.543   0.550   0.558   0.597   0.616   0.599   0.596   0.589   0.626   0.642   0.622   0.599   0.616   0.604   0.606   0.613   0.585   0.619   0.657   0.630   0.699   0.720   0.690   0.673   0.724   0.706   0.709   0.687   0.683   0.646   0.671   0.702   0.698   0.647   0.633   0.629   0.595   0.594   0.600   0.592   0.551   0.546   0.597   0.601   0.604   0.619   0.621   0.657   0.637   0.621   0.611   0.633   0.681   0.669   0.680   0.694   0.683   0.681   0.712   0.677   0.650   0.666   0.676   0.624   0.633   0.628   0.594   0.551   0.561   0.569   0.561   0.538   0.538   0.551   0.564   0.575   0.586   0.540   0.565   0.590   0.572   0.575   0.555   0.532   0.505   0.497   0.540   0.505   0.475   0.484   0.497   0.547   0.522
    38.20    0.517   0.503   0.473   0.498   0.484   0.534   0.538   0.534   0.578   0.571   0.559   0.588   0.595   0.614   0.570   0.531   0.532   0.541   0.544   0.612   0.588   0.636   0.619   0.634   0.613   0.647   0.628   0.629   0.602   0.611   0.607   0.613   0.602   0.565   0.495   0.540   0.531   0.545   0.570   0.570   0.600   0.572   0.565   0.594   0.551   0.514   0.490   0.474   0.483   0.498   0.505   0.507   0.505   0.466   0.450   0.493   0.493   0.485   0.523   0.514   0.466   0.482   0.511   0.502   0.522   0.496   0.494   0.492   0.464   0.462   0.468   0.474   0.551   0.548   0.546   0.538   0.490   0.471   0.469   0.457   0.498   0.508   0.526   0.473   0.431   0.488   0.491   0.496   0.502   0.501   0.486   0.540   0.519   0.528   0.538   0.504   0.523   0.521   0.511   0.525   0.518   0.536   0.552   0.559   0.580   0.572   0.584   0.600   0.612   0.638   0.635   0.617   0.598   0.563   0.576   0.611   0.592   0.600   0.610   0.615   0.677   0.684   0.734   0.709   0.771   0.755   0.660   0.623   0.652   0.652   0.633   0.675   0.697   0.624   0.607   0.584   0.590   0.639   0.621   0.555   0.558   0.494   0.576   0.628   0.651   0.600   0.607   0.600   0.630   0.641   0.653   0.651   0.674   0.687   0.666   0.710   0.752   0.760   0.756   0.696   0.685   0.660   0.672   0.649   0.665   0.631   0.621   0.585   0.551   0.576   0.553   0.563   0.562   0.541   0.542   0.559   0.587   0.576   0.602   0.592   0.588   0.539   0.528   0.542   0.508   0.535   0.550   0.547   0.504   0.475   0.521   0.571   0.572
    28.90    0.525   0.502   0.515   0.508   0.528   0.535   0.497   0.533   0.560   0.539   0.539   0.564   0.550   0.588   0.561   0.550   0.502   0.511   0.562   0.579   0.592   0.617   0.647   0.643   0.665   0.643   0.597   0.568   0.583   0.603   0.538   0.567   0.595   0.545   0.540   0.521   0.529   0.544   0.590   0.548   0.555   0.575   0.600   0.576   0.575   0.545   0.523   0.516   0.500   0.486   0.521   0.513   0.487   0.502   0.430   0.476   0.491   0.503   0.527   0.549   0.503   0.504   0.526   0.521   0.514   0.509   0.504   0.474   0.510   0.462   0.434   0.472   0.486   0.548   0.533   0.547   0.548   0.504   0.512   0.482   0.511   0.505   0.499   0.503   0.461   0.463   0.450   0.459   0.466   0.515   0.549   0.578   0.527   0.493   0.541   0.539   0.494   0.512   0.534   0.524   0.539   0.564   0.575   0.587   0.546   0.551   0.570   0.593   0.580   0.620   0.574   0.607   0.581   0.568   0.530   0.569   0.605   0.634   0.636   0.643   0.636   0.644   0.693   0.734   0.751   0.705   0.635   0.597   0.641   0.640   0.641   0.683   0.680   0.620   0.592   0.569   0.615   0.614   0.628   0.588   0.541   0.534   0.539   0.617   0.624   0.586   0.570   0.609   0.626   0.612   0.617   0.655   0.622   0.621   0.689   0.740   0.765   0.761   0.763   0.749   0.710   0.687   0.663   0.657   0.664   0.650   0.619   0.594   0.581   0.597   0.587   0.578   0.535   0.548   0.569   0.571   0.571   0.570   0.580   0.590   0.566   0.484   0.513   0.534   0.518   0.514   0.545   0.545   0.499   0.519   0.556   0.531   0.525
    19.60    0.533   0.543   0.537   0.512   0.519   0.525   0.531   0.557   0.542   0.487   0.543   0.556   0.552   0.590   0.557   0.541   0.533   0.492   0.535   0.577   0.537   0.626   0.639   0.657   0.631   0.601   0.575   0.582   0.584   0.583   0.535   0.546   0.550   0.552   0.545   0.534   0.541   0.619   0.607   0.589   0.586   0.568   0.560   0.563   0.576   0.552   0.522   0.538   0.495   0.502   0.538   0.540   0.480   0.490   0.451   0.470   0.491   0.506   0.551   0.513   0.501   0.521   0.539   0.515   0.513   0.510   0.539   0.521   0.497   0.464   0.476   0.463   0.456   0.523   0.539   0.529   0.584   0.497   0.528   0.509   0.488   0.498   0.502   0.481   0.514   0.491   0.465   0.442   0.469   0.523   0.578   0.616   0.565   0.534   0.541   0.534   0.489   0.498   0.529   0.537   0.564   0.577   0.597   0.580   0.560   0.570   0.564   0.603   0.596   0.570   0.590   0.580   0.588   0.576   0.562   0.559   0.555   0.605   0.623   0.606   0.621   0.629   0.705   0.710   0.674   0.626   0.612   0.646   0.652   0.669   0.644   0.689   0.641   0.620   0.578   0.589   0.609   0.591   0.616   0.582   0.541   0.543   0.570   0.618   0.635   0.620   0.612   0.636   0.630   0.618   0.609   0.628   0.622   0.622   0.657   0.677   0.722   0.756   0.711   0.729   0.751   0.731   0.667   0.653   0.653   0.631   0.623   0.610   0.604   0.571   0.581   0.523   0.505   0.539   0.580   0.586   0.590   0.583   0.591   0.607   0.573   0.496   0.487   0.543   0.519   0.514   0.502   0.492   0.513   0.522   0.527   0.555   0.561
    10.30    0.549   0.522   0.546   0.513   0.512   0.518   0.538   0.522   0.491   0.492   0.485   0.535   0.547   0.591   0.601   0.584   0.555   0.536   0.538   0.556   0.567   0.626   0.639   0.628   0.634   0.651   0.583   0.580   0.614   0.553   0.540   0.542   0.537   0.504   0.519   0.534   0.518   0.602   0.628   0.586   0.594   0.638   0.616   0.645   0.615   0.622   0.593   0.568   0.513   0.546   0.544   0.512   0.525   0.514   0.501   0.493   0.500   0.520   0.523   0.518   0.508   0.484   0.526   0.509   0.526   0.545   0.541   0.517   0.503   0.498   0.460   0.471   0.525   0.495   0.513   0.543   0.530   0.522   0.539   0.495   0.493   0.475   0.486   0.486   0.497   0.467   0.491   0.472   0.508   0.556   0.564   0.597   0.611   0.573   0.539   0.537   0.451   0.503   0.527   0.524   0.569   0.585   0.579   0.582   0.578   0.561   0.533   0.540   0.554   0.580   0.604   0.600   0.621   0.609   0.578   0.547   0.574   0.575   0.552   0.612   0.614   0.602   0.661   0.707   0.687   0.669   0.624   0.647   0.642   0.621   0.578   0.616   0.636   0.582   0.599   0.586   0.610   0.587   0.570   0.535   0.527   0.523   0.512   0.595   0.655   0.576   0.581   0.610   0.611   0.598   0.606   0.619   0.555   0.586   0.614   0.619   0.641   0.660   0.701   0.710   0.740   0.744   0.703   0.671   0.669   0.588   0.571   0.582   0.565   0.567   0.539   0.509   0.525   0.561   0.556   0.601   0.596   0.608   0.647   0.605   0.598   0.574   0.546   0.539   0.523   0.522   0.497   0.540   0.520   0.544   0.555   0.571   0.554
     1.00    0.573   0.527   0.545   0.574   0.506   0.522   0.505   0.465   0.466   0.476   0.515   0.537   0.588   0.590   0.591   0.568   0.615   0.555   0.594   0.559   0.611   0.588   0.633   0.595   0.593   0.575   0.576   0.578   0.621   0.616   0.601   0.544   0.544   0.550   0.543   0.527   0.556   0.597   0.595   0.609   0.622   0.594   0.616   0.629   0.646   0.630   0.639   0.592   0.549   0.541   0.556   0.543   0.508   0.503   0.492   0.504   0.535   0.514   0.537   0.538   0.527   0.519   0.526   0.538   0.548   0.572   0.553   0.521   0.505   0.496   0.480   0.506   0.489   0.507   0.501   0.537   0.513   0.534   0.501   0.491   0.504   0.510   0.483   0.473   0.466   0.448   0.473   0.509   0.528   0.558   0.564   0.579   0.592   0.570   0.538   0.518   0.487   0.510   0.478   0.546   0.557   0.569   0.564   0.557   0.546   0.556   0.527   0.562   0.544   0.560   0.580   0.601   0.619   0.605   0.595   0.578   0.562   0.576   0.583   0.600   0.595   0.633   0.656   0.672   0.679   0.652   0.637   0.612   0.647   0.603   0.588   0.561   0.569   0.588   0.587   0.565   0.617   0.562   0.584   0.612   0.533   0.540   0.546   0.580   0.613   0.590   0.563   0.621   0.602   0.623   0.625   0.635   0.591   0.580   0.587   0.607   0.629   0.632   0.657   0.682   0.711   0.731   0.682   0.630   0.643   0.614   0.590   0.576   0.579   0.569   0.538   0.497   0.538   0.571   0.557   0.583   0.628   0.632   0.624   0.646   0.639   0.608   0.591   0.534   0.507   0.515   0.480   0.511   0.501   0.543   0.524   0.572   0.569

   Height   Standard deviation at grid points for the v component:
   354.40    0.465   0.477   0.485   0.499   0.490   0.480   0.486   0.503   0.499   0.471   0.465   0.464   0.472   0.463   0.447   0.465   0.438   0.436   0.431   0.457   0.476   0.461   0.456   0.429   0.437   0.453   0.426   0.435   0.439   0.479   0.454   0.454   0.414   0.437   0.423   0.449   0.454   0.450   0.459   0.467   0.433   0.461   0.444   0.470   0.475   0.467   0.461   0.456   0.471   0.454   0.459   0.443   0.439   0.446   0.425   0.443   0.431   0.429   0.438   0.460   0.437   0.457   0.446   0.434   0.443   0.425   0.454   0.448   0.451   0.471   0.476   0.506   0.523   0.518   0.510   0.486   0.514   0.510   0.508   0.481   0.461   0.451   0.438   0.457   0.432   0.446   0.444   0.482   0.481   0.483   0.483   0.475   0.473   0.470   0.472   0.474   0.503   0.512   0.522   0.547   0.543   0.552   0.546   0.536   0.513   0.491   0.488   0.483   0.447   0.451   0.444   0.461   0.457   0.457   0.469   0.453   0.470   0.478   0.487   0.501   0.489   0.485   0.482   0.481   0.474   0.453   0.469   0.488   0.508   0.503   0.486   0.486   0.463   0.446   0.434   0.446   0.440   0.441   0.442   0.440   0.432   0.414   0.415   0.415   0.412   0.430   0.431   0.455   0.456   0.436   0.422   0.434   0.446   0.455   0.457   0.458   0.476   0.476   0.486   0.491   0.475   0.481   0.459   0.442   0.439   0.455   0.461   0.459   0.468   0.479   0.470   0.451   0.439   0.412   0.423   0.419   0.460   0.448   0.451   0.434   0.433   0.458   0.420   0.421   0.393   0.430   0.433   0.430   0.422   0.437   0.420   0.451   0.452
   345.10    0.474   0.481   0.502   0.509   0.496   0.512   0.481   0.474   0.483   0.487   0.491   0.492   0.485   0.463   0.471   0.467   0.471   0.460   0.450   0.469   0.456   0.463   0.450   0.470   0.452   0.442   0.438   0.429   0.434   0.450   0.470   0.435   0.428   0.432   0.465   0.443   0.448   0.461   0.467   0.457   0.459   0.482   0.483   0.489   0.462   0.452   0.445   0.454   0.464   0.438   0.440   0.456   0.447   0.451   0.440   0.460   0.458   0.446   0.440   0.452   0.455   0.444   0.443   0.445   0.441   0.418   0.434   0.470   0.475   0.484   0.486   0.503   0.503   0.529   0.530   0.511   0.515   0.514   0.495   0.478   0.465   0.458   0.447   0.431   0.430   0.434   0.429   0.467   0.495   0.493   0.455   0.460   0.466   0.469   0.470   0.474   0.516   0.518   0.538   0.554   0.543   0.530   0.544   0.511   0.498   0.504   0.489   0.476   0.443   0.421   0.444   0.442   0.447   0.439   0.458   0.462   0.483   0.468   0.505   0.491   0.503   0.493   0.468   0.466   0.476   0.458   0.483   0.502   0.489   0.485   0.478   0.450   0.435   0.444   0.425   0.433   0.427   0.442   0.424   0.440   0.437   0.440   0.451   0.415   0.424   0.393   0.419   0.438   0.462   0.448   0.444   0.450   0.457   0.456   0.480   0.470   0.433   0.461   0.476   0.474   0.479   0.456   0.453   0.458   0.448   0.443   0.452   0.477   0.466   0.500   0.479   0.465   0.478   0.472   0.466   0.456   0.456   0.460   0.449   0.432   0.409   0.429   0.424   0.408   0.404   0.397   0.432   0.406   0.443   0.454   0.448   0.463   0.447
   335.80    0.482   0.473   0.502   0.501   0.506   0.473   0.480   0.467   0.488   0.469   0.497   0.478   0.472   0.464   0.453   0.458   0.460   0.477   0.470   0.447   0.442   0.457   0.471   0.458   0.455   0.456   0.420   0.444   0.453   0.472   0.472   0.443   0.443   0.435   0.449   0.443   0.461   0.473   0.474   0.480   0.494   0.460   0.458   0.473   0.462   0.451   0.463   0.476   0.471   0.457   0.459   0.465   0.455   0.461   0.461   0.475   0.465   0.444   0.439   0.432   0.453   0.437   0.451   0.434   0.458   0.438   0.441   0.440   0.481   0.460   0.461   0.476   0.483   0.516   0.503   0.493   0.494   0.479   0.465   0.482   0.476   0.450   0.432   0.438   0.429   0.415   0.440   0.456   0.478   0.470   0.481   0.483   0.476   0.453   0.472   0.477   0.531   0.535   0.530   0.519   0.547   0.537   0.534   0.501   0.497   0.482   0.465   0.456   0.453   0.422   0.434   0.426   0.448   0.443   0.436   0.459   0.464   0.477   0.488   0.485   0.495   0.455   0.444   0.458   0.477   0.455   0.476   0.491   0.492   0.455   0.453   0.439   0.435   0.435   0.443   0.449   0.450   0.445   0.441   0.443   0.439   0.421   0.442   0.420   0.431   0.434   0.435   0.426   0.430   0.455   0.452   0.443   0.449   0.442   0.457   0.464   0.459   0.451   0.484   0.478   0.460   0.504   0.449   0.453   0.430   0.450   0.465   0.464   0.482   0.460   0.482   0.491   0.468   0.445   0.487   0.469   0.469   0.446   0.426   0.414   0.424   0.418   0.417   0.414   0.410   0.419   0.423   0.422   0.449   0.439   0.428   0.448   0.430
   326.50    0.494   0.483   0.496   0.481   0.474   0.476   0.486   0.480   0.472   0.472   0.498   0.491   0.494   0.473   0.477   0.456   0.470   0.474   0.480   0.439   0.423   0.466   0.490   0.468   0.477   0.461   0.440   0.465   0.460   0.462   0.443   0.468   0.466   0.464   0.439   0.473   0.449   0.473   0.483   0.483   0.477   0.471   0.448   0.437   0.448   0.424   0.459   0.473   0.446   0.450   0.434   0.449   0.486   0.478   0.484   0.474   0.473   0.440   0.449   0.462   0.441   0.451   0.444   0.459   0.474   0.441   0.439   0.452   0.477   0.488   0.475   0.487   0.502   0.496   0.502   0.487   0.493   0.471   0.485   0.478   0.473   0.440   0.432   0.436   0.441   0.433   0.446   0.437   0.462   0.452   0.462   0.474   0.456   0.475   0.465   0.501   0.529   0.556   0.546   0.526   0.550   0.518   0.532   0.515   0.486   0.481   0.452   0.451   0.423   0.441   0.413   0.419   0.458   0.454   0.460   0.458   0.467   0.487   0.504   0.504   0.470   0.452   0.431   0.449   0.442   0.480   0.474   0.511   0.476   0.472   0.462   0.454   0.438   0.428   0.462   0.451   0.448   0.454   0.446   0.449   0.431   0.417   0.402   0.415   0.424   0.454   0.432   0.437   0.447   0.447   0.496   0.455   0.464   0.439   0.435   0.445   0.440   0.458   0.479   0.487   0.490   0.495   0.473   0.485   0.454   0.444   0.457   0.446   0.472   0.447   0.466   0.476   0.462   0.481   0.478   0.459   0.457   0.437   0.442   0.406   0.400   0.403   0.408   0.421   0.429   0.438   0.428   0.445   0.453   0.411   0.433   0.450   0.435
[...]
   103.30    0.278   0.281   0.292   0.290   0.287   0.285   0.294   0.292   0.293   0.277   0.282   0.294   0.289   0.284   0.277   0.280   0.293   0.289   0.277   0.272   0.275   0.283   0.278   0.279   0.274   0.275   0.264   0.283   0.281   0.272   0.275   0.279   0.272   0.275   0.281   0.278   0.279   0.286   0.292   0.299   0.293   0.289   0.282   0.289   0.291   0.288   0.294   0.289   0.290   0.286   0.276   0.271   0.280   0.271   0.270   0.280   0.272   0.278   0.275   0.272   0.274   0.281   0.278   0.280   0.281   0.286   0.295   0.288   0.281   0.287   0.275   0.280   0.284   0.294   0.279   0.288   0.271   0.277   0.280   0.281   0.290   0.284   0.286   0.277   0.270   0.273   0.269   0.276   0.279   0.277   0.284   0.287   0.283   0.288   0.284   0.291   0.288   0.290   0.284   0.279   0.279   0.273   0.280   0.275   0.270   0.280   0.290   0.280   0.286   0.278   0.275   0.273   0.272   0.275   0.289   0.290   0.276   0.274   0.282   0.273   0.274   0.272   0.278   0.266   0.271   0.280   0.277   0.270   0.275   0.276   0.279   0.278   0.274   0.286   0.293   0.284   0.276   0.275   0.278   0.281   0.282   0.289   0.293   0.279   0.275   0.288   0.300   0.290   0.285   0.286   0.291   0.292   0.296   0.282   0.285   0.283   0.279   0.267   0.275   0.274   0.280   0.284   0.292   0.300   0.295   0.292   0.291   0.288   0.282   0.286   0.290   0.281   0.286   0.289   0.281   0.283   0.286   0.292   0.289   0.292   0.283   0.283   0.287   0.279   0.265   0.267   0.265   0.272   0.265   0.277   0.280   0.278   0.275
    94.00    0.291   0.294   0.285   0.279   0.283   0.279   0.284   0.286   0.284   0.282   0.279   0.287   0.288   0.286   0.284   0.293   0.300   0.284   0.277   0.277   0.283   0.281   0.282   0.287   0.287   0.273   0.266   0.282   0.286   0.276   0.283   0.280   0.273   0.277   0.267   0.274   0.278   0.288   0.296   0.290   0.292   0.296   0.291   0.285   0.295   0.303   0.294   0.288   0.289   0.293   0.277   0.281   0.270   0.269   0.282   0.292   0.277   0.278   0.283   0.282   0.273   0.271   0.277   0.275   0.280   0.297   0.300   0.297   0.288   0.281   0.279   0.285   0.285   0.285   0.276   0.275   0.278   0.273   0.276   0.284   0.278   0.285   0.280   0.279   0.276   0.272   0.276   0.278   0.283   0.277   0.268   0.276   0.281   0.289   0.293   0.296   0.287   0.289   0.284   0.287   0.282   0.279   0.282   0.285   0.280   0.279   0.281   0.279   0.285   0.286   0.271   0.278   0.281   0.277   0.282   0.287   0.281   0.277   0.280   0.271   0.289   0.280   0.268   0.269   0.277   0.280   0.279   0.280   0.276   0.271   0.286   0.288   0.280   0.286   0.292   0.278   0.281   0.282   0.285   0.287   0.295   0.282   0.288   0.289   0.294   0.292   0.295   0.288   0.281   0.283   0.288   0.297   0.294   0.296   0.291   0.286   0.281   0.269   0.272   0.278   0.288   0.291   0.287   0.296   0.295   0.302   0.295   0.296   0.286   0.285   0.294   0.295   0.291   0.289   0.293   0.288   0.277   0.281   0.280   0.284   0.284   0.288   0.279   0.272   0.272   0.264   0.268   0.264   0.266   0.261   0.275   0.268   0.280
    84.70    0.287   0.287   0.285   0.291   0.286   0.283   0.277   0.281   0.276   0.282   0.288   0.293   0.300   0.290   0.287   0.286   0.285   0.278   0.278   0.273   0.281   0.272   0.277   0.281   0.282   0.290   0.273   0.277   0.286   0.277   0.276   0.283   0.274   0.273   0.274   0.275   0.278   0.279   0.287   0.292   0.292   0.284   0.293   0.282   0.286   0.296   0.299   0.294   0.296   0.285   0.289   0.271   0.265   0.268   0.281   0.285   0.290   0.292   0.288   0.276   0.286   0.283   0.270   0.279   0.283   0.288   0.300   0.297   0.294   0.298   0.285   0.280   0.282   0.284   0.276   0.273   0.269   0.267   0.264   0.272   0.280   0.278   0.279   0.274   0.282   0.273   0.281   0.278   0.282   0.280   0.282   0.283   0.284   0.287   0.285   0.296   0.287   0.292   0.294   0.298   0.294   0.290   0.286   0.278   0.279   0.285   0.283   0.285   0.284   0.282   0.266   0.275   0.275   0.286   0.300   0.287   0.276   0.274   0.275   0.270   0.280   0.284   0.277   0.274   0.273   0.278   0.274   0.277   0.267   0.270   0.274   0.276   0.277   0.287   0.287   0.281   0.275   0.284   0.283   0.296   0.299   0.295   0.288   0.295   0.301   0.296   0.280   0.283   0.287   0.287   0.290   0.294   0.289   0.286   0.287   0.282   0.285   0.280   0.287   0.292   0.294   0.286   0.288   0.300   0.296   0.297   0.295   0.289   0.277   0.293   0.283   0.281   0.288   0.286   0.288   0.290   0.279   0.273   0.269   0.283   0.289   0.282   0.275   0.285   0.279   0.271   0.273   0.264   0.270   0.270   0.268   0.276   0.272
    75.40    0.287   0.282   0.281   0.287   0.281   0.279   0.269   0.279   0.281   0.279   0.284   0.290   0.288   0.289   0.295   0.292   0.284   0.277   0.284   0.280   0.278   0.280   0.275   0.280   0.295   0.288   0.282   0.282   0.287   0.281   0.280   0.283   0.274   0.269   0.277   0.278   0.280   0.280   0.282   0.287   0.270   0.277   0.287   0.285   0.284   0.297   0.310   0.291   0.292   0.285   0.275   0.271   0.265   0.280   0.282   0.280   0.285   0.285   0.277   0.281   0.289   0.281   0.277   0.284   0.285   0.287   0.293   0.295   0.289   0.290   0.283   0.291   0.284   0.284   0.278   0.282   0.277   0.268   0.261   0.276   0.287   0.278   0.276   0.284   0.282   0.278   0.284   0.284   0.294   0.285   0.283   0.280   0.281   0.286   0.299   0.299   0.294   0.297   0.287   0.295   0.297   0.290   0.293   0.287   0.278   0.285   0.294   0.291   0.285   0.279   0.271   0.275   0.275   0.285   0.294   0.278   0.281   0.269   0.285   0.279   0.275   0.277   0.282   0.279   0.280   0.282   0.278   0.279   0.277   0.278   0.274   0.278   0.274   0.274   0.281   0.285   0.294   0.285   0.284   0.293   0.288   0.289   0.286   0.289   0.294   0.288   0.279   0.288   0.287   0.290   0.286   0.283   0.289   0.287   0.291   0.286   0.291   0.287   0.287   0.284   0.285   0.286   0.295   0.294   0.293   0.287   0.292   0.286   0.292   0.291   0.291   0.287   0.283   0.287   0.287   0.290   0.292   0.285   0.277   0.282   0.288   0.267   0.276   0.274   0.271   0.273   0.276   0.270   0.269   0.270   0.279   0.274   0.279
    66.10    0.276   0.286   0.289   0.288   0.277   0.281   0.273   0.279   0.282   0.282   0.275   0.281   0.284   0.283   0.287   0.297   0.288   0.284   0.285   0.275   0.283   0.285   0.270   0.274   0.277   0.277   0.284   0.285   0.288   0.283   0.283   0.285   0.286   0.267   0.271   0.274   0.275   0.275   0.273   0.275   0.275   0.274   0.295   0.298   0.293   0.297   0.295   0.289   0.285   0.285   0.288   0.282   0.284   0.275   0.281   0.290   0.287   0.290   0.285   0.284   0.285   0.289   0.287   0.282   0.285   0.285   0.286   0.284   0.293   0.300   0.288   0.296   0.291   0.282   0.280   0.281   0.279   0.274   0.277   0.279   0.289   0.276   0.278   0.282   0.277   0.288   0.289   0.286   0.290   0.293   0.285   0.279   0.283   0.286   0.290   0.300   0.290   0.301   0.293   0.292   0.299   0.295   0.291   0.275   0.278   0.277   0.281   0.291   0.282   0.275   0.274   0.273   0.281   0.276   0.285   0.289   0.283   0.277   0.283   0.287   0.285   0.278   0.290   0.285   0.271   0.274   0.279   0.276   0.279   0.279   0.275   0.283   0.286   0.289   0.283   0.287   0.293   0.286   0.281   0.289   0.284   0.285   0.279   0.281   0.290   0.288   0.279   0.286   0.280   0.278   0.278   0.279   0.295   0.284   0.286   0.283   0.292   0.296   0.285   0.279   0.285   0.287   0.287   0.283   0.286   0.278   0.283   0.285   0.281   0.278   0.293   0.288   0.289   0.284   0.275   0.286   0.293   0.279   0.286   0.287   0.288   0.273   0.276   0.269   0.269   0.277   0.270   0.274   0.270   0.265   0.282   0.277   0.272
    56.80    0.282   0.287   0.278   0.276   0.282   0.271   0.273   0.266   0.272   0.282   0.276   0.268   0.279   0.284   0.278   0.279   0.279   0.276   0.286   0.273   0.279   0.284   0.274   0.279   0.286   0.286   0.281   0.285   0.287   0.282   0.280   0.283   0.283   0.282   0.283   0.278   0.276   0.279   0.279   0.278   0.270   0.279   0.287   0.291   0.291   0.288   0.288   0.289   0.287   0.282   0.286   0.283   0.287   0.285   0.275   0.286   0.293   0.288   0.289   0.281   0.278   0.286   0.294   0.288   0.291   0.284   0.283   0.275   0.288   0.282   0.289   0.292   0.292   0.280   0.286   0.278   0.285   0.279   0.284   0.289   0.277   0.281   0.294   0.285   0.280   0.280   0.287   0.280   0.280   0.294   0.290   0.296   0.290   0.286   0.290   0.290   0.296   0.293   0.300   0.288   0.282   0.294   0.300   0.289   0.287   0.292   0.288   0.282   0.279   0.278   0.279   0.289   0.284   0.283   0.291   0.294   0.288   0.288   0.292   0.280   0.280   0.279   0.284   0.292   0.277   0.272   0.280   0.277   0.273   0.280   0.280   0.286   0.292   0.283   0.286   0.279   0.288   0.285   0.285   0.285   0.272   0.272   0.281   0.286   0.287   0.280   0.278   0.279   0.280   0.284   0.278   0.286   0.289   0.279   0.289   0.289   0.286   0.289   0.292   0.277   0.284   0.288   0.290   0.279   0.278   0.276   0.277   0.271   0.283   0.289   0.290   0.289   0.282   0.293   0.285   0.286   0.281   0.271   0.282   0.286   0.285   0.279   0.277   0.270   0.278   0.273   0.284   0.281   0.272   0.276   0.277   0.275   0.276
    47.50    0.285   0.280   0.276   0.275   0.268   0.275   0.273   0.276   0.273   0.278   0.282   0.281   0.284   0.283   0.285   0.279   0.279   0.279   0.287   0.278   0.274   0.272   0.276   0.272   0.284   0.282   0.280   0.282   0.283   0.277   0.278   0.277   0.287   0.277   0.279   0.279   0.275   0.275   0.276   0.280   0.288   0.289   0.276   0.293   0.289   0.291   0.287   0.295   0.278   0.282   0.284   0.298   0.300   0.289   0.279   0.284   0.290   0.289   0.287   0.275   0.276   0.286   0.299   0.296   0.292   0.282   0.283   0.275   0.295   0.295   0.290   0.288   0.288   0.282   0.284   0.276   0.288   0.288   0.281   0.284   0.285   0.285   0.288   0.292   0.280   0.278   0.284   0.280   0.276   0.288   0.290   0.292   0.296   0.290   0.289   0.296   0.301   0.304   0.301   0.289   0.290   0.290   0.291   0.294   0.290   0.279   0.283   0.286   0.277   0.276   0.276   0.276   0.288   0.282   0.287   0.284   0.287   0.285   0.290   0.289   0.290   0.279   0.289   0.289   0.288   0.274   0.273   0.279   0.283   0.276   0.286   0.278   0.276   0.285   0.284   0.283   0.284   0.287   0.292   0.283   0.273   0.285   0.285   0.285   0.283   0.280   0.276   0.272   0.275   0.283   0.276   0.293   0.285   0.280   0.282   0.283   0.282   0.285   0.281   0.293   0.282   0.292   0.293   0.284   0.278   0.275   0.267   0.272   0.269   0.281   0.282   0.283   0.295   0.290   0.288   0.298   0.290   0.274   0.278   0.290   0.279   0.283   0.269   0.275   0.272   0.279   0.274   0.288   0.285   0.272   0.278   0.289   0.282
    38.20    0.288   0.289   0.286   0.291   0.279   0.274   0.278   0.276   0.279   0.272   0.279   0.286   0.274   0.284   0.281   0.280   0.274   0.271   0.277   0.276   0.273   0.273   0.271   0.277   0.285   0.277   0.283   0.279   0.279   0.288   0.286   0.286   0.284   0.278   0.278   0.289   0.279   0.287   0.282   0.279   0.283   0.286   0.284   0.286   0.289   0.294   0.284   0.288   0.278   0.285   0.295   0.301   0.305   0.299   0.298   0.295   0.282   0.280   0.279   0.279   0.277   0.287   0.295   0.286   0.287   0.282   0.292   0.280   0.286   0.288   0.282   0.293   0.277   0.283   0.281   0.287   0.274   0.281   0.277   0.286   0.283   0.279   0.280   0.289   0.289   0.283   0.282   0.289   0.285   0.286   0.289   0.289   0.288   0.283   0.284   0.286   0.289   0.302   0.299   0.294   0.285   0.289   0.292   0.294   0.294   0.290   0.277   0.282   0.285   0.280   0.287   0.278   0.284   0.287   0.299   0.294   0.292   0.297   0.291   0.285   0.289   0.282   0.277   0.288   0.284   0.278   0.277   0.286   0.281   0.272   0.279   0.285   0.283   0.286   0.297   0.290   0.287   0.286   0.287   0.292   0.286   0.284   0.286   0.278   0.278   0.281   0.288   0.276   0.277   0.278   0.287   0.287   0.284   0.286   0.288   0.290   0.288   0.282   0.274   0.275   0.290   0.286   0.289   0.292   0.278   0.276   0.275   0.278   0.264   0.272   0.276   0.283   0.293   0.289   0.283   0.292   0.281   0.275   0.289   0.285   0.276   0.286   0.276   0.267   0.270   0.274   0.289   0.283   0.278   0.283   0.272   0.282   0.290
    28.90    0.283   0.298   0.294   0.295   0.288   0.283   0.273   0.279   0.286   0.274   0.283   0.283   0.284   0.284   0.287   0.279   0.267   0.269   0.275   0.286   0.275   0.282   0.274   0.271   0.279   0.280   0.276   0.280   0.283   0.288   0.291   0.288   0.284   0.277   0.284   0.287   0.287   0.293   0.281   0.285   0.278   0.283   0.293   0.289   0.289   0.296   0.299   0.295   0.294   0.279   0.288   0.293   0.301   0.298   0.287   0.296   0.293   0.286   0.275   0.276   0.278   0.289   0.290   0.284   0.286   0.280   0.287   0.278   0.278   0.274   0.273   0.273   0.273   0.277   0.271   0.273   0.284   0.288   0.292   0.294   0.286   0.271   0.276   0.281   0.286   0.286   0.296   0.293   0.284   0.286   0.285   0.289   0.287   0.288   0.291   0.291   0.297   0.300   0.291   0.292   0.297   0.288   0.287   0.283   0.289   0.289   0.282   0.292   0.288   0.281   0.277   0.272   0.272   0.284   0.293   0.289   0.289   0.297   0.291   0.279   0.288   0.292   0.279   0.274   0.275   0.279   0.276   0.266   0.272   0.283   0.284   0.283   0.280   0.296   0.292   0.295   0.288   0.286   0.288   0.286   0.284   0.281   0.286   0.282   0.280   0.278   0.283   0.285   0.278   0.277   0.277   0.282   0.279   0.288   0.292   0.293   0.296   0.283   0.286   0.287   0.287   0.288   0.293   0.290   0.287   0.285   0.278   0.275   0.282   0.285   0.287   0.289   0.295   0.287   0.282   0.287   0.290   0.290   0.282   0.280   0.278   0.276   0.278   0.278   0.282   0.281   0.282   0.280   0.287   0.287   0.276   0.288   0.284
    19.60    0.284   0.294   0.300   0.292   0.280   0.284   0.278   0.287   0.283   0.286   0.287   0.276   0.278   0.283   0.284   0.287   0.283   0.290   0.277   0.280   0.273   0.281   0.280   0.281   0.280   0.275   0.284   0.283   0.286   0.291   0.294   0.290   0.277   0.272   0.275   0.281   0.284   0.290   0.289   0.276   0.276   0.290   0.296   0.293   0.288   0.288   0.291   0.302   0.293   0.297   0.280   0.288   0.298   0.299   0.297   0.292   0.284   0.288   0.284   0.282   0.280   0.285   0.283   0.297   0.299   0.290   0.289   0.291   0.281   0.272   0.274   0.274   0.278   0.282   0.277   0.281   0.279   0.282   0.288   0.285   0.286   0.287   0.278   0.269   0.280   0.281   0.285   0.284   0.288   0.290   0.292   0.284   0.280   0.285   0.294   0.291   0.287   0.295   0.302   0.289   0.298   0.302   0.289   0.277   0.281   0.291   0.294   0.292   0.294   0.287   0.281   0.277   0.279   0.281   0.286   0.280   0.287   0.291   0.288   0.291   0.286   0.282   0.279   0.277   0.277   0.281   0.272   0.272   0.266   0.277   0.282   0.284   0.285   0.289   0.293   0.287   0.286   0.279   0.288   0.286   0.286   0.288   0.288   0.281   0.276   0.271   0.275   0.278   0.282   0.284   0.277   0.265   0.276   0.285   0.279   0.277   0.293   0.285   0.290   0.291   0.290   0.294   0.286   0.288   0.279   0.284   0.285   0.285   0.284   0.287   0.283   0.294   0.284   0.294   0.296   0.284   0.281   0.284   0.284   0.287   0.282   0.283   0.283   0.276   0.285   0.275   0.266   0.273   0.278   0.272   0.277   0.289   0.283
    10.30    0.294   0.290   0.287   0.286   0.289   0.285   0.273   0.281   0.283   0.278   0.279   0.274   0.283   0.290   0.292   0.290   0.287   0.286   0.278   0.274   0.278   0.279   0.273   0.271   0.285   0.274   0.285   0.300   0.288   0.290   0.288   0.288   0.280   0.283   0.288   0.279   0.279   0.282   0.282   0.279   0.272   0.284   0.294   0.294   0.295   0.299   0.294   0.297   0.291   0.301   0.285   0.286   0.292   0.298   0.296   0.291   0.290   0.291   0.276   0.282   0.291   0.277   0.284   0.294   0.299   0.292   0.281   0.279   0.273   0.281   0.280   0.278   0.283   0.279   0.275   0.276   0.288   0.286   0.279   0.289   0.283   0.277   0.276   0.279   0.281   0.281   0.283   0.282   0.286   0.291   0.291   0.279   0.278   0.285   0.289   0.291   0.282   0.294   0.287   0.297   0.301   0.298   0.295   0.288   0.286   0.292   0.282   0.287   0.289   0.292   0.295   0.290   0.280   0.281   0.274   0.286   0.284   0.285   0.285   0.289   0.287   0.294   0.293   0.279   0.271   0.281   0.278   0.278   0.281   0.288   0.288   0.285   0.282   0.274   0.290   0.286   0.283   0.271   0.282   0.288   0.285   0.282   0.287   0.276   0.287   0.275   0.271   0.271   0.284   0.289   0.281   0.275   0.281   0.279   0.279   0.282   0.290   0.300   0.292   0.300   0.294   0.294   0.296   0.295   0.290   0.285   0.290   0.290   0.289   0.291   0.294   0.287   0.306   0.300   0.294   0.287   0.280   0.279   0.286   0.275   0.280   0.283   0.283   0.281   0.283   0.277   0.276   0.276   0.268   0.272   0.287   0.279   0.276
     1.00    0.284   0.280   0.286   0.289   0.280   0.280   0.279   0.287   0.287   0.281   0.280   0.282   0.281   0.286   0.289   0.282   0.286   0.293   0.289   0.281   0.281   0.287   0.292   0.280   0.273   0.274   0.289   0.291   0.293   0.291   0.291   0.286   0.290   0.286   0.281   0.287   0.285   0.292   0.284   0.280   0.279   0.288   0.297   0.295   0.301   0.295   0.294   0.290   0.290   0.286   0.289   0.290   0.289   0.289   0.291   0.294   0.286   0.288   0.296   0.290   0.290   0.291   0.283   0.288   0.289   0.285   0.290   0.288   0.275   0.282   0.278   0.281   0.280   0.284   0.286   0.293   0.292   0.290   0.278   0.279   0.282   0.281   0.275   0.283   0.280   0.282   0.287   0.291   0.278   0.292   0.284   0.273   0.280   0.283   0.279   0.283   0.289   0.297   0.283   0.282   0.294   0.292   0.288   0.300   0.289   0.292   0.286   0.288   0.292   0.290   0.287   0.282   0.272   0.274   0.267   0.271   0.277   0.276   0.283   0.286   0.290   0.290   0.283   0.276   0.275   0.286   0.279   0.282   0.283   0.282   0.281   0.280   0.274   0.277   0.283   0.280   0.281   0.284   0.289   0.288   0.291   0.281   0.291   0.286   0.281   0.282   0.270   0.276   0.278   0.283   0.273   0.275   0.283   0.286   0.276   0.275   0.285   0.293   0.288   0.290   0.290   0.293   0.287   0.292   0.285   0.286   0.290   0.304   0.301   0.298   0.293   0.292   0.293   0.301   0.305   0.293   0.293   0.280   0.285   0.277   0.287   0.285   0.282   0.282   0.279   0.275   0.273   0.278   0.280   0.274   0.279   0.283   0.286

   Mean standard deviation across all grid points:
      u component:    0.553 m/s
      v component:    0.466 m/s
      w component:    0.284 m/s


U-component (X) statistics from the interpolated hub point:

   Mean =   9.7063 m/s
   TI   =   5.1121 %


Processing complete.  2.12933E+05 CPU seconds used.
