
This summary file was generated by TurbSim (from OpenFAST-v3.5.3) on 20-Apr-2025 at 12:31:40.


Runtime Options:

 376932526  Random seed #1
    RANLUX  Type of random number generator
         F  Output binary HH turbulence parameters?
         F  Output formatted turbulence parameters?
         F  Output AeroDyn HH files?
         T  Output AeroDyn FF files?
         F  Output BLADED FF files?
         F  Output tower data?
         F  Output HAWC FF files?
         F  Output formatted FF files?
         T  Output coherent turbulence time step file?
 0 -  NONE  IEC turbulence models scaled to exact specified standard deviation


Turbine/Model Specifications:

        37  Vertical grid-point matrix dimension
        35  Horizontal grid-point matrix dimension
     0.250  Time step [seconds]
   900.000  Analysis time [seconds]
   900.000  Usable output time [seconds]
    89.350  Hub height [m]
   167.400  Grid height [m]
   158.100  Grid width [m]
     0.000  Vertical flow angle [degrees]
     0.000  Horizontal flow angle [degrees]


Meteorological Boundary Conditions:

    TIMESR  User-input time series spectral model
       N/A  IEC standard
       N/A  IEC turbulence characteristic
       N/A  IEC turbulence type
       N/A  IEC Extreme Turbulence Model (ETM) "c" parameter [m/s]
       PL   Wind profile type
    90.000  Reference height [m]
    10.000  Reference wind speed [m/s]
       N/A  Jet height [m]
     0.120  Power law exponent
     0.030  Surface roughness length [m]


Non-IEC Meteorological Boundary Conditions:

    45.000  Site latitude [degrees]
     0.050  Gradient Richardson number
     0.480  Friction or shear velocity [m/s]
       N/A  Mixing layer depth [m]
       N/A  Mean hub u'w' Reynolds stress
       N/A  Mean hub u'v' Reynolds stress
       N/A  Mean hub v'w' Reynolds stress


Spatial Coherence Models:

       IEC  u-component coherence model
       IEC  v-component coherence model
       IEC  w-component coherence model
(   12.000, 0.353E-03)  u-component coherence parameters
(   12.000, 0.353E-03)  v-component coherence parameters
(   12.000, 0.353E-03)  w-component coherence parameters
       N/A  Coherence exponent


Coherent Turbulence Scaling Parameters:

.\EventData
            Name of the path containing the coherent turbulence data files
       les  Type of coherent turbulence data files
     1.000  Disturbance scale (ratio of wave height to rotor diameter)
     0.500  Fractional location of tower centerline from right
     0.500  Fractional location of hub height from the bottom of the dataset
    30.000  Minimum start time for coherent structures [seconds]


Profiles from User-Defined Time-Series Input:

  Height   Wind Speed   Horizontal Angle   Vertical Angle
   (m)        (m/s)          (deg)              (deg)    
  ------   ----------   ----------------   --------------
   94.00      10.00          -0.63                0.00


You have requested that the following file(s) be generated:

   /kfs3/scratch/agupta/Projects/RL_Incubator/FinalRuns_Veer/Seed4/./FFSim_Seed4/Cond00_v10.0_PL0.12_TI6.0/Case3_wdirp06/Seed_6/TurbSim/HighT18.bts (AeroDyn/TurbSim full-field wind file)


Turbulence Simulation Scaling Parameter Summary:

   Turbulence model used                            =  User-input time series
   Gradient Richardson number                       =    0.050
   Monin-Obukhov (M-O) z/L parameter                =    0.067
   Monin-Obukhov (M-O) length scale                 = 1340.250 m
   Mean wind speed at hub height                    =    9.991 m/s

   Wind profile type                                =  Power law
   Power law exponent                               =    0.120
   Mean shear across rotor disk                     =    0.019 (m/s)/m
   Assumed rotor diameter                           =  158.100 m
   Surface roughness length                         =    0.030 m

   Nyquist frequency of turbulent wind field        =    2.000 Hz

   Number of time steps in the FFT                  =     3600
   Number of time steps output                      =     3600
   Number of points simulated                       =     1296


Mean Flow Angles:

   Vertical   =   0.0 degrees
   Horizontal =   0.0 degrees

Mean Wind Speed Profile:

   Height    Wind Speed   Horizontal Angle  Vertical Angle  U-comp (X)   V-comp (Y)   W-comp (Z)
     (m)        (m/s)         (degrees)       (degrees)       (m/s)        (m/s)        (m/s)   
   ------    ----------   ----------------  --------------  ----------   ----------   ----------
    168.4       10.78            0.00            0.00         10.78         0.00         0.00
    163.7       10.74            0.00            0.00         10.74         0.00         0.00
    159.1       10.71            0.00            0.00         10.71         0.00         0.00
    154.4       10.67            0.00            0.00         10.67         0.00         0.00
    149.8       10.63            0.00            0.00         10.63         0.00         0.00
    145.1       10.59            0.00            0.00         10.59         0.00         0.00
    140.5       10.55            0.00            0.00         10.55         0.00         0.00
    135.8       10.51            0.00            0.00         10.51         0.00         0.00
    131.2       10.46            0.00            0.00         10.46         0.00         0.00
    126.5       10.42            0.00            0.00         10.42         0.00         0.00
    121.9       10.37            0.00            0.00         10.37         0.00         0.00
    117.2       10.32            0.00            0.00         10.32         0.00         0.00
    112.6       10.27            0.00            0.00         10.27         0.00         0.00
    107.9       10.22            0.00            0.00         10.22         0.00         0.00
    103.3       10.17            0.00            0.00         10.17         0.00         0.00
     98.6       10.11            0.00            0.00         10.11         0.00         0.00
     94.0       10.05            0.00            0.00         10.05         0.00         0.00
     89.3        9.99            0.00            0.00          9.99         0.00         0.00
     84.7        9.93            0.00            0.00          9.93         0.00         0.00
     80.0        9.86            0.00            0.00          9.86         0.00         0.00
     75.4        9.79            0.00            0.00          9.79         0.00         0.00
     70.7        9.72            0.00            0.00          9.72         0.00         0.00
     66.1        9.64            0.00            0.00          9.64         0.00         0.00
     61.4        9.55            0.00            0.00          9.55         0.00         0.00
     56.8        9.46            0.00            0.00          9.46         0.00         0.00
     52.1        9.37            0.00            0.00          9.37         0.00         0.00
     47.5        9.26            0.00            0.00          9.26         0.00         0.00
     42.8        9.15            0.00            0.00          9.15         0.00         0.00
     38.2        9.02            0.00            0.00          9.02         0.00         0.00
     33.5        8.88            0.00            0.00          8.88         0.00         0.00
     28.9        8.73            0.00            0.00          8.73         0.00         0.00
     24.2        8.54            0.00            0.00          8.54         0.00         0.00
     19.6        8.33            0.00            0.00          8.33         0.00         0.00
     14.9        8.06            0.00            0.00          8.06         0.00         0.00
     10.3        7.71            0.00            0.00          7.71         0.00         0.00
      5.6        7.17            0.00            0.00          7.17         0.00         0.00
      1.0        5.83            0.00            0.00          5.83         0.00         0.00


Harvested Random Seeds after Generation of the Random Numbers:

     65026800 K 1
            0 K 2


Hub-Height Simulated Turbulence Statistical Summary:

   Type of Wind        Min (m/s)   Mean (m/s)    Max (m/s)  Sigma (m/s)       TI (%)
   ----------------    ---------   ----------    ---------  -----------       ------
   Longitudinal (u)         8.31         9.99        11.62        0.561        5.612
   Lateral (v)             -1.65        -0.00         1.64        0.487        4.878
   Vertical (w)            -1.14         0.00         1.09        0.292        2.919
   U component              8.31         9.99        11.62        0.561        5.612
   V component             -1.65        -0.00         1.64        0.487        4.878
   W component             -1.14         0.00         1.09        0.292        2.919
   Horizontal (U&V)         8.33        10.00        11.62        0.561        5.606
   Total                    8.33        10.01        11.62        0.560        5.599

                       Min Reynolds     Mean Reynolds    Max Reynolds    Correlation
   Product             Stress (m/s)^2   Stress (m/s)^2   Stress (m/s)^2  Coefficient
   ----------------    --------------   --------------   --------------  -----------
   u'w'                     -0.897            -0.012             0.937        -0.070
   u'v'                     -1.993            -0.028             1.646        -0.101
   v'w'                     -0.668             0.013             0.857         0.088


   Friction Velocity (Ustar)  =      0.107 m/s
   Maximum Instantaneous TKE  =      1.997 (m/s)^2
   Maximum Instantaneous CTKE =      0.996 (m/s)^2


Grid Point Variance Summary:

   Y-coord  -79.05  -74.40  -69.75  -65.10  -60.45  -55.80  -51.15  -46.50  -41.85  -37.20  -32.55  -27.90  -23.25  -18.60  -13.95   -9.30   -4.65    0.00    4.65    9.30   13.95   18.60   23.25   27.90   32.55   37.20   41.85   46.50   51.15   55.80   60.45   65.10   69.75   74.40   79.05

   Height   Standard deviation at grid points for the u component:
   168.40    0.565   0.542   0.530   0.531   0.492   0.493   0.500   0.541   0.548   0.551   0.510   0.525   0.538   0.527   0.555   0.527   0.537   0.541   0.538   0.554   0.574   0.578   0.571   0.595   0.564   0.566   0.585   0.595   0.608   0.582   0.558   0.563   0.559   0.531   0.522
   163.75    0.558   0.539   0.549   0.555   0.541   0.524   0.538   0.506   0.538   0.530   0.541   0.528   0.526   0.547   0.536   0.540   0.563   0.568   0.530   0.548   0.552   0.557   0.576   0.565   0.583   0.575   0.582   0.591   0.581   0.548   0.535   0.554   0.517   0.530   0.531
   159.10    0.611   0.595   0.594   0.557   0.567   0.552   0.545   0.554   0.564   0.545   0.576   0.549   0.563   0.558   0.580   0.543   0.544   0.550   0.546   0.533   0.541   0.551   0.566   0.584   0.572   0.562   0.561   0.570   0.556   0.530   0.525   0.533   0.553   0.578   0.592
   154.45    0.628   0.600   0.550   0.567   0.558   0.576   0.580   0.544   0.552   0.531   0.532   0.559   0.559   0.557   0.568   0.566   0.581   0.568   0.523   0.559   0.565   0.559   0.557   0.548   0.579   0.574   0.569   0.584   0.553   0.551   0.509   0.497   0.562   0.583   0.571
   149.80    0.636   0.629   0.584   0.567   0.578   0.573   0.575   0.501   0.544   0.512   0.560   0.558   0.565   0.548   0.546   0.572   0.581   0.571   0.544   0.551   0.564   0.589   0.572   0.588   0.600   0.573   0.574   0.559   0.570   0.545   0.529   0.528   0.568   0.545   0.547
   145.15    0.636   0.617   0.629   0.617   0.601   0.599   0.548   0.527   0.513   0.521   0.521   0.567   0.582   0.583   0.571   0.599   0.604   0.599   0.588   0.572   0.573   0.569   0.587   0.618   0.618   0.605   0.578   0.607   0.556   0.564   0.524   0.506   0.532   0.556   0.548
   140.50    0.605   0.622   0.613   0.600   0.614   0.574   0.573   0.522   0.532   0.536   0.574   0.573   0.585   0.580   0.618   0.618   0.610   0.645   0.631   0.634   0.637   0.601   0.584   0.604   0.607   0.600   0.594   0.578   0.556   0.554   0.540   0.512   0.516   0.523   0.531
   135.85    0.601   0.618   0.602   0.569   0.626   0.619   0.599   0.562   0.530   0.522   0.556   0.559   0.556   0.591   0.592   0.594   0.610   0.636   0.645   0.644   0.623   0.602   0.586   0.589   0.620   0.576   0.587   0.564   0.564   0.551   0.552   0.526   0.539   0.509   0.487
   131.20    0.618   0.647   0.617   0.618   0.606   0.580   0.572   0.563   0.576   0.593   0.578   0.607   0.586   0.596   0.599   0.596   0.615   0.618   0.629   0.637   0.602   0.577   0.586   0.601   0.597   0.590   0.566   0.537   0.522   0.515   0.517   0.517   0.519   0.519   0.486
   126.55    0.631   0.635   0.615   0.633   0.643   0.621   0.576   0.579   0.589   0.590   0.640   0.628   0.630   0.618   0.613   0.641   0.651   0.605   0.608   0.615   0.601   0.610   0.579   0.600   0.602   0.623   0.572   0.523   0.513   0.516   0.539   0.506   0.513   0.521   0.523
   121.90    0.640   0.613   0.631   0.645   0.643   0.637   0.611   0.613   0.610   0.602   0.629   0.645   0.645   0.634   0.630   0.620   0.622   0.613   0.633   0.630   0.635   0.578   0.607   0.603   0.631   0.601   0.576   0.574   0.545   0.527   0.545   0.527   0.502   0.500   0.511
   117.25    0.604   0.620   0.640   0.648   0.658   0.656   0.639   0.661   0.629   0.629   0.640   0.650   0.650   0.660   0.653   0.611   0.632   0.617   0.624   0.626   0.622   0.609   0.591   0.604   0.598   0.606   0.536   0.561   0.557   0.555   0.531   0.535   0.525   0.530   0.523
   112.60    0.595   0.589   0.627   0.655   0.661   0.628   0.645   0.659   0.621   0.626   0.657   0.618   0.621   0.632   0.641   0.616   0.608   0.600   0.599   0.603   0.618   0.582   0.594   0.589   0.594   0.606   0.556   0.552   0.545   0.557   0.534   0.483   0.487   0.500   0.522
   107.95    0.616   0.600   0.646   0.656   0.636   0.619   0.647   0.643   0.625   0.643   0.646   0.640   0.657   0.627   0.617   0.622   0.603   0.605   0.567   0.595   0.620   0.582   0.575   0.566   0.568   0.576   0.571   0.535   0.536   0.525   0.489   0.491   0.478   0.500   0.504
   103.30    0.631   0.625   0.622   0.623   0.611   0.618   0.625   0.642   0.605   0.629   0.661   0.647   0.671   0.598   0.603   0.616   0.607   0.586   0.569   0.590   0.568   0.552   0.544   0.543   0.559   0.576   0.561   0.540   0.534   0.530   0.485   0.493   0.506   0.528   0.525
    98.65    0.619   0.597   0.602   0.625   0.647   0.633   0.636   0.612   0.614   0.634   0.651   0.648   0.659   0.619   0.623   0.628   0.612   0.628   0.585   0.567   0.558   0.534   0.530   0.512   0.544   0.572   0.565   0.572   0.524   0.536   0.494   0.492   0.503   0.507   0.539
    94.00    0.612   0.606   0.608   0.615   0.655   0.627   0.636   0.612   0.652   0.617   0.617   0.631   0.640   0.632   0.626   0.613   0.622   0.587   0.571   0.537   0.530   0.520   0.527   0.516   0.532   0.540   0.570   0.538   0.537   0.535   0.506   0.490   0.483   0.501   0.515
    89.35    0.557   0.575   0.586   0.611   0.602   0.604   0.606   0.602   0.611   0.634   0.595   0.566   0.612   0.609   0.623   0.589   0.569   0.561   0.569   0.524   0.538   0.527   0.550   0.559   0.523   0.559   0.557   0.546   0.533   0.544   0.522   0.523   0.509   0.525   0.508
    84.70    0.551   0.542   0.547   0.601   0.597   0.588   0.593   0.568   0.596   0.608   0.602   0.589   0.576   0.598   0.601   0.570   0.582   0.568   0.539   0.559   0.567   0.537   0.553   0.575   0.587   0.573   0.586   0.542   0.508   0.571   0.559   0.543   0.504   0.505   0.520
    80.05    0.553   0.568   0.569   0.578   0.624   0.617   0.579   0.574   0.548   0.592   0.612   0.608   0.579   0.587   0.596   0.593   0.591   0.574   0.547   0.559   0.578   0.575   0.547   0.561   0.595   0.602   0.583   0.560   0.560   0.585   0.585   0.542   0.470   0.466   0.482
    75.40    0.578   0.582   0.598   0.592   0.583   0.578   0.582   0.550   0.553   0.582   0.576   0.584   0.593   0.581   0.568   0.575   0.599   0.584   0.597   0.607   0.579   0.576   0.563   0.566   0.583   0.600   0.586   0.579   0.589   0.593   0.572   0.522   0.489   0.462   0.449
    70.75    0.630   0.643   0.620   0.573   0.581   0.580   0.607   0.559   0.546   0.566   0.592   0.572   0.606   0.603   0.587   0.568   0.621   0.599   0.616   0.641   0.586   0.589   0.587   0.558   0.573   0.602   0.619   0.594   0.581   0.562   0.551   0.526   0.520   0.463   0.462
    66.10    0.652   0.649   0.634   0.601   0.576   0.557   0.566   0.581   0.559   0.584   0.597   0.612   0.610   0.616   0.614   0.615   0.647   0.632   0.645   0.631   0.628   0.620   0.586   0.574   0.563   0.592   0.623   0.594   0.550   0.557   0.516   0.516   0.504   0.460   0.480
    61.45    0.675   0.634   0.649   0.654   0.600   0.526   0.541   0.570   0.572   0.560   0.594   0.611   0.619   0.609   0.612   0.600   0.608   0.668   0.659   0.674   0.627   0.621   0.585   0.579   0.578   0.568   0.610   0.605   0.564   0.526   0.520   0.501   0.477   0.506   0.491
    56.80    0.675   0.639   0.646   0.645   0.604   0.527   0.563   0.553   0.590   0.603   0.593   0.569   0.593   0.577   0.613   0.612   0.608   0.648   0.659   0.684   0.630   0.648   0.629   0.631   0.627   0.619   0.613   0.605   0.573   0.563   0.523   0.460   0.467   0.480   0.514
    52.15    0.664   0.643   0.632   0.638   0.585   0.565   0.588   0.563   0.547   0.580   0.593   0.583   0.573   0.574   0.587   0.584   0.591   0.637   0.668   0.686   0.657   0.655   0.648   0.644   0.657   0.630   0.633   0.610   0.587   0.548   0.518   0.478   0.484   0.501   0.509
    47.50    0.664   0.636   0.609   0.616   0.586   0.606   0.625   0.605   0.553   0.575   0.575   0.577   0.584   0.588   0.599   0.601   0.604   0.662   0.695   0.698   0.691   0.682   0.645   0.642   0.638   0.622   0.648   0.610   0.575   0.541   0.528   0.488   0.470   0.487   0.467
    42.85    0.642   0.660   0.632   0.593   0.607   0.597   0.605   0.620   0.551   0.534   0.533   0.571   0.585   0.611   0.597   0.627   0.616   0.683   0.698   0.704   0.695   0.629   0.620   0.640   0.645   0.637   0.635   0.633   0.570   0.535   0.529   0.485   0.462   0.466   0.478
    38.20    0.602   0.634   0.644   0.596   0.596   0.612   0.616   0.624   0.554   0.527   0.510   0.559   0.586   0.618   0.623   0.600   0.614   0.651   0.681   0.668   0.649   0.634   0.593   0.612   0.626   0.644   0.646   0.621   0.585   0.551   0.532   0.488   0.450   0.470   0.500
    33.55    0.583   0.617   0.609   0.598   0.621   0.619   0.615   0.577   0.562   0.522   0.515   0.552   0.558   0.589   0.610   0.612   0.618   0.659   0.659   0.646   0.620   0.585   0.579   0.570   0.601   0.607   0.604   0.618   0.615   0.593   0.542   0.491   0.453   0.439   0.469
    28.90    0.598   0.615   0.583   0.582   0.622   0.638   0.600   0.581   0.529   0.547   0.540   0.570   0.585   0.592   0.652   0.652   0.623   0.614   0.631   0.640   0.614   0.608   0.582   0.596   0.567   0.604   0.610   0.596   0.608   0.580   0.554   0.479   0.450   0.469   0.444
    24.25    0.587   0.606   0.597   0.627   0.614   0.646   0.630   0.605   0.561   0.555   0.546   0.603   0.618   0.651   0.661   0.647   0.627   0.634   0.614   0.609   0.604   0.630   0.580   0.593   0.580   0.605   0.616   0.564   0.572   0.583   0.528   0.470   0.457   0.480   0.468
    19.60    0.592   0.581   0.576   0.581   0.619   0.629   0.624   0.594   0.581   0.604   0.584   0.634   0.605   0.645   0.644   0.633   0.634   0.664   0.637   0.630   0.665   0.613   0.604   0.603   0.580   0.595   0.625   0.609   0.602   0.574   0.542   0.499   0.499   0.497   0.489
    14.95    0.577   0.549   0.584   0.576   0.573   0.583   0.634   0.594   0.601   0.595   0.618   0.664   0.637   0.643   0.639   0.626   0.653   0.646   0.634   0.616   0.648   0.637   0.612   0.605   0.606   0.626   0.664   0.643   0.581   0.608   0.533   0.497   0.517   0.512   0.486
    10.30    0.579   0.517   0.557   0.559   0.553   0.548   0.584   0.598   0.570   0.569   0.603   0.656   0.653   0.676   0.705   0.679   0.661   0.648   0.644   0.626   0.643   0.625   0.613   0.632   0.629   0.634   0.618   0.612   0.614   0.600   0.563   0.536   0.523   0.527   0.505
     5.65    0.598   0.528   0.557   0.549   0.523   0.527   0.572   0.585   0.581   0.584   0.598   0.614   0.645   0.671   0.642   0.662   0.646   0.630   0.624   0.618   0.630   0.648   0.617   0.616   0.628   0.627   0.622   0.620   0.587   0.609   0.606   0.568   0.543   0.552   0.523
     1.00    0.573   0.566   0.559   0.562   0.538   0.556   0.601   0.620   0.607   0.579   0.567   0.572   0.604   0.629   0.641   0.636   0.639   0.604   0.638   0.606   0.632   0.680   0.649   0.646   0.598   0.596   0.595   0.591   0.601   0.600   0.570   0.586   0.534   0.514   0.487

   Height   Standard deviation at grid points for the v component:
   168.40    0.428   0.435   0.435   0.456   0.470   0.483   0.515   0.523   0.479   0.459   0.449   0.450   0.464   0.448   0.441   0.461   0.455   0.459   0.463   0.469   0.477   0.458   0.465   0.461   0.442   0.429   0.398   0.419   0.432   0.435   0.420   0.456   0.486   0.491   0.491
   163.75    0.438   0.446   0.431   0.457   0.451   0.460   0.491   0.484   0.486   0.464   0.452   0.452   0.445   0.479   0.492   0.468   0.465   0.491   0.478   0.489   0.471   0.472   0.444   0.452   0.417   0.428   0.413   0.422   0.413   0.431   0.431   0.459   0.487   0.475   0.486
   159.10    0.442   0.456   0.429   0.414   0.439   0.433   0.446   0.456   0.454   0.455   0.442   0.451   0.459   0.476   0.484   0.490   0.471   0.477   0.489   0.508   0.488   0.482   0.454   0.486   0.455   0.442   0.447   0.441   0.432   0.441   0.439   0.439   0.494   0.491   0.481
   154.45    0.437   0.443   0.427   0.458   0.441   0.434   0.430   0.449   0.470   0.462   0.452   0.450   0.500   0.520   0.463   0.485   0.487   0.467   0.484   0.500   0.490   0.490   0.479   0.474   0.486   0.485   0.461   0.483   0.471   0.470   0.466   0.446   0.496   0.458   0.479
   149.80    0.447   0.441   0.456   0.468   0.449   0.455   0.447   0.480   0.467   0.459   0.476   0.475   0.499   0.514   0.473   0.493   0.492   0.480   0.496   0.521   0.490   0.505   0.498   0.511   0.481   0.487   0.484   0.492   0.491   0.485   0.485   0.463   0.478   0.476   0.460
   145.15    0.476   0.473   0.450   0.473   0.430   0.428   0.461   0.468   0.466   0.485   0.480   0.498   0.503   0.475   0.484   0.483   0.493   0.494   0.488   0.501   0.478   0.499   0.519   0.504   0.482   0.492   0.499   0.496   0.502   0.513   0.483   0.471   0.469   0.463   0.484
   140.50    0.466   0.465   0.481   0.461   0.431   0.443   0.463   0.467   0.497   0.492   0.515   0.498   0.489   0.502   0.531   0.510   0.513   0.494   0.486   0.504   0.503   0.488   0.490   0.499   0.497   0.515   0.501   0.519   0.513   0.507   0.503   0.469   0.502   0.493   0.486
   135.85    0.455   0.480   0.475   0.455   0.445   0.459   0.454   0.495   0.505   0.526   0.497   0.493   0.502   0.519   0.548   0.561   0.559   0.531   0.512   0.532   0.497   0.513   0.531   0.509   0.490   0.524   0.502   0.513   0.528   0.517   0.510   0.483   0.500   0.497   0.502
   131.20    0.442   0.438   0.454   0.453   0.477   0.487   0.475   0.498   0.503   0.519   0.514   0.513   0.511   0.513   0.531   0.548   0.564   0.560   0.531   0.529   0.524   0.519   0.528   0.542   0.520   0.519   0.501   0.510   0.516   0.526   0.524   0.493   0.469   0.464   0.471
   126.55    0.426   0.444   0.463   0.473   0.484   0.518   0.492   0.480   0.492   0.522   0.520   0.510   0.512   0.562   0.548   0.534   0.547   0.537   0.553   0.536   0.540   0.531   0.532   0.534   0.502   0.494   0.507   0.517   0.514   0.523   0.509   0.485   0.489   0.470   0.439
   121.90    0.477   0.447   0.446   0.485   0.505   0.509   0.513   0.483   0.501   0.509   0.503   0.502   0.535   0.544   0.555   0.517   0.524   0.539   0.536   0.551   0.549   0.550   0.543   0.521   0.481   0.495   0.502   0.494   0.495   0.492   0.488   0.478   0.465   0.447   0.437
   117.25    0.490   0.471   0.470   0.458   0.491   0.487   0.509   0.476   0.483   0.488   0.485   0.527   0.534   0.528   0.556   0.517   0.525   0.526   0.543   0.542   0.533   0.516   0.490   0.491   0.481   0.481   0.509   0.486   0.475   0.471   0.477   0.465   0.434   0.428   0.450
   112.60    0.469   0.475   0.483   0.491   0.484   0.491   0.492   0.481   0.473   0.479   0.469   0.491   0.507   0.518   0.529   0.517   0.501   0.506   0.520   0.519   0.488   0.482   0.465   0.453   0.450   0.457   0.482   0.455   0.453   0.447   0.432   0.443   0.434   0.436   0.420
   107.95    0.511   0.491   0.511   0.503   0.495   0.494   0.496   0.465   0.503   0.499   0.482   0.487   0.517   0.511   0.502   0.495   0.492   0.493   0.500   0.499   0.480   0.465   0.439   0.426   0.433   0.455   0.465   0.448   0.433   0.444   0.439   0.429   0.430   0.425   0.412
   103.30    0.510   0.497   0.513   0.517   0.504   0.498   0.462   0.481   0.489   0.489   0.479   0.505   0.509   0.502   0.494   0.499   0.497   0.500   0.483   0.495   0.483   0.448   0.440   0.451   0.425   0.413   0.453   0.472   0.446   0.440   0.440   0.443   0.423   0.417   0.427
    98.65    0.512   0.502   0.508   0.521   0.481   0.493   0.472   0.480   0.470   0.477   0.453   0.478   0.491   0.518   0.506   0.507   0.505   0.509   0.482   0.498   0.479   0.463   0.443   0.428   0.409   0.425   0.425   0.443   0.442   0.447   0.460   0.441   0.427   0.423   0.446
    94.00    0.499   0.483   0.495   0.506   0.480   0.486   0.482   0.472   0.489   0.474   0.463   0.445   0.469   0.499   0.494   0.509   0.516   0.500   0.491   0.493   0.457   0.466   0.437   0.413   0.409   0.424   0.421   0.430   0.453   0.460   0.437   0.434   0.423   0.422   0.437
    89.35    0.526   0.488   0.473   0.491   0.485   0.498   0.469   0.490   0.452   0.457   0.461   0.445   0.475   0.479   0.485   0.487   0.483   0.487   0.463   0.501   0.471   0.448   0.427   0.421   0.416   0.410   0.426   0.418   0.422   0.466   0.464   0.433   0.427   0.419   0.429
    84.70    0.547   0.509   0.491   0.477   0.492   0.519   0.520   0.522   0.491   0.480   0.478   0.474   0.503   0.484   0.483   0.484   0.491   0.471   0.467   0.495   0.478   0.451   0.437   0.433   0.416   0.401   0.400   0.427   0.439   0.448   0.429   0.439   0.437   0.428   0.425
    80.05    0.550   0.516   0.525   0.509   0.518   0.510   0.530   0.543   0.522   0.518   0.495   0.476   0.474   0.466   0.479   0.482   0.487   0.467   0.469   0.486   0.476   0.476   0.471   0.447   0.423   0.413   0.414   0.420   0.425   0.456   0.430   0.451   0.430   0.427   0.417
    75.40    0.527   0.490   0.510   0.498   0.524   0.523   0.530   0.531   0.511   0.502   0.493   0.469   0.494   0.491   0.472   0.472   0.464   0.453   0.460   0.493   0.490   0.477   0.472   0.441   0.423   0.430   0.468   0.467   0.448   0.443   0.436   0.439   0.442   0.424   0.409
    70.75    0.542   0.533   0.523   0.501   0.530   0.522   0.506   0.489   0.483   0.502   0.501   0.487   0.492   0.499   0.476   0.457   0.419   0.438   0.464   0.485   0.482   0.481   0.479   0.433   0.432   0.446   0.467   0.471   0.483   0.482   0.443   0.446   0.417   0.422   0.412
    66.10    0.539   0.540   0.513   0.518   0.514   0.497   0.502   0.472   0.504   0.492   0.504   0.510   0.489   0.492   0.487   0.460   0.414   0.419   0.448   0.481   0.486   0.489   0.477   0.456   0.445   0.454   0.455   0.444   0.451   0.465   0.468   0.438   0.436   0.413   0.397
    61.45    0.520   0.494   0.494   0.505   0.493   0.490   0.494   0.481   0.502   0.505   0.493   0.494   0.493   0.460   0.463   0.472   0.462   0.445   0.443   0.472   0.486   0.504   0.485   0.458   0.482   0.462   0.454   0.455   0.449   0.449   0.461   0.436   0.426   0.407   0.389
    56.80    0.506   0.495   0.494   0.494   0.498   0.490   0.483   0.489   0.494   0.497   0.500   0.516   0.485   0.482   0.495   0.477   0.472   0.459   0.457   0.455   0.477   0.492   0.515   0.500   0.466   0.458   0.447   0.451   0.476   0.478   0.446   0.418   0.400   0.378   0.395
    52.15    0.495   0.492   0.472   0.480   0.479   0.474   0.481   0.492   0.488   0.481   0.525   0.501   0.496   0.466   0.499   0.500   0.484   0.470   0.485   0.491   0.499   0.507   0.506   0.471   0.501   0.468   0.455   0.499   0.489   0.491   0.474   0.404   0.405   0.394   0.402
    47.50    0.483   0.465   0.464   0.450   0.442   0.464   0.478   0.461   0.473   0.482   0.486   0.487   0.478   0.470   0.475   0.507   0.509   0.497   0.507   0.495   0.499   0.486   0.506   0.482   0.495   0.484   0.474   0.508   0.486   0.503   0.457   0.421   0.395   0.407   0.372
    42.85    0.483   0.492   0.468   0.440   0.437   0.436   0.439   0.450   0.437   0.472   0.461   0.457   0.480   0.484   0.470   0.516   0.529   0.499   0.494   0.491   0.501   0.495   0.493   0.491   0.478   0.479   0.491   0.498   0.482   0.487   0.445   0.403   0.418   0.415   0.385
    38.20    0.510   0.477   0.467   0.448   0.456   0.420   0.435   0.453   0.460   0.485   0.474   0.449   0.483   0.498   0.497   0.512   0.513   0.495   0.479   0.471   0.471   0.482   0.474   0.471   0.481   0.480   0.472   0.455   0.451   0.473   0.472   0.447   0.434   0.411   0.386
    33.55    0.510   0.502   0.473   0.474   0.443   0.447   0.449   0.451   0.466   0.476   0.468   0.473   0.472   0.485   0.491   0.495   0.504   0.481   0.486   0.458   0.466   0.472   0.485   0.472   0.469   0.477   0.453   0.446   0.439   0.459   0.470   0.472   0.450   0.414   0.395
    28.90    0.494   0.519   0.490   0.477   0.468   0.473   0.466   0.481   0.459   0.471   0.472   0.448   0.470   0.493   0.480   0.492   0.474   0.474   0.461   0.459   0.447   0.454   0.463   0.461   0.478   0.465   0.457   0.435   0.427   0.465   0.464   0.462   0.470   0.422   0.451
    24.25    0.535   0.511   0.494   0.476   0.474   0.465   0.464   0.466   0.487   0.476   0.460   0.480   0.491   0.485   0.486   0.479   0.478   0.464   0.450   0.454   0.462   0.482   0.454   0.483   0.472   0.461   0.439   0.420   0.425   0.445   0.474   0.483   0.474   0.464   0.469
    19.60    0.509   0.504   0.487   0.472   0.468   0.474   0.486   0.477   0.477   0.481   0.459   0.469   0.489   0.491   0.492   0.509   0.506   0.481   0.486   0.461   0.457   0.480   0.485   0.460   0.462   0.431   0.444   0.435   0.433   0.447   0.444   0.473   0.479   0.481   0.492
    14.95    0.532   0.490   0.473   0.497   0.465   0.472   0.489   0.481   0.474   0.467   0.458   0.465   0.481   0.499   0.502   0.507   0.518   0.470   0.469   0.491   0.472   0.480   0.456   0.442   0.450   0.446   0.472   0.473   0.459   0.456   0.455   0.480   0.473   0.478   0.512
    10.30    0.522   0.504   0.498   0.476   0.461   0.458   0.469   0.463   0.442   0.451   0.471   0.491   0.492   0.488   0.501   0.487   0.493   0.480   0.489   0.493   0.479   0.464   0.471   0.453   0.441   0.448   0.465   0.455   0.428   0.441   0.456   0.474   0.484   0.476   0.507
     5.65    0.518   0.535   0.530   0.509   0.489   0.494   0.461   0.466   0.457   0.453   0.464   0.490   0.508   0.504   0.486   0.476   0.506   0.511   0.484   0.471   0.462   0.471   0.483   0.486   0.465   0.442   0.458   0.431   0.417   0.419   0.440   0.456   0.466   0.489   0.528
     1.00    0.513   0.544   0.544   0.506   0.515   0.499   0.504   0.479   0.454   0.484   0.482   0.472   0.500   0.472   0.459   0.484   0.488   0.506   0.497   0.463   0.471   0.472   0.474   0.467   0.433   0.431   0.442   0.418   0.419   0.403   0.417   0.447   0.460   0.466   0.488

   Height   Standard deviation at grid points for the w component:
   168.40    0.287   0.292   0.286   0.287   0.278   0.285   0.290   0.286   0.272   0.269   0.290   0.280   0.273   0.273   0.275   0.271   0.269   0.272   0.261   0.264   0.271   0.282   0.275   0.273   0.270   0.270   0.270   0.263   0.272   0.269   0.257   0.262   0.267   0.273   0.273
   163.75    0.289   0.286   0.289   0.285   0.280   0.279   0.283   0.284   0.287   0.285   0.282   0.284   0.276   0.272   0.266   0.267   0.272   0.272   0.281   0.272   0.267   0.275   0.280   0.271   0.270   0.264   0.258   0.258   0.258   0.264   0.263   0.259   0.261   0.273   0.273
   159.10    0.286   0.290   0.288   0.289   0.278   0.275   0.281   0.286   0.295   0.302   0.288   0.282   0.262   0.273   0.268   0.267   0.268   0.282   0.285   0.281   0.279   0.273   0.283   0.273   0.272   0.269   0.269   0.269   0.269   0.275   0.270   0.273   0.255   0.262   0.265
   154.45    0.279   0.283   0.291   0.279   0.290   0.280   0.276   0.286   0.291   0.295   0.292   0.283   0.268   0.270   0.266   0.266   0.268   0.286   0.286   0.285   0.293   0.290   0.276   0.272   0.277   0.259   0.262   0.258   0.274   0.274   0.275   0.272   0.266   0.252   0.270
   149.80    0.284   0.290   0.298   0.289   0.285   0.294   0.282   0.286   0.298   0.293   0.285   0.273   0.273   0.276   0.272   0.281   0.277   0.280   0.280   0.278   0.289   0.291   0.276   0.273   0.267   0.258   0.258   0.257   0.262   0.270   0.259   0.259   0.255   0.263   0.268
   145.15    0.284   0.287   0.298   0.297   0.286   0.297   0.287   0.285   0.293   0.289   0.289   0.291   0.288   0.279   0.281   0.282   0.272   0.285   0.274   0.283   0.282   0.282   0.271   0.273   0.270   0.272   0.269   0.262   0.263   0.264   0.261   0.257   0.253   0.262   0.269
   140.50    0.279   0.287   0.288   0.296   0.295   0.287   0.296   0.288   0.282   0.289   0.283   0.289   0.280   0.285   0.292   0.281   0.275   0.287   0.280   0.289   0.280   0.272   0.266   0.267   0.268   0.273   0.264   0.261   0.259   0.258   0.267   0.259   0.254   0.255   0.258
   135.85    0.270   0.280   0.291   0.292   0.284   0.279   0.285   0.283   0.276   0.282   0.281   0.296   0.290   0.285   0.286   0.279   0.276   0.278   0.284   0.297   0.267   0.279   0.269   0.266   0.279   0.271   0.270   0.268   0.267   0.265   0.259   0.257   0.254   0.256   0.261
   131.20    0.269   0.283   0.292   0.288   0.288   0.291   0.284   0.291   0.281   0.281   0.279   0.285   0.290   0.286   0.286   0.281   0.280   0.277   0.281   0.284   0.282   0.272   0.276   0.278   0.278   0.265   0.280   0.273   0.265   0.274   0.264   0.256   0.263   0.264   0.267
   126.55    0.278   0.275   0.280   0.289   0.284   0.297   0.294   0.288   0.282   0.291   0.283   0.288   0.299   0.279   0.277   0.280   0.278   0.280   0.278   0.278   0.283   0.271   0.280   0.277   0.270   0.266   0.279   0.270   0.270   0.268   0.265   0.264   0.263   0.272   0.272
   121.90    0.274   0.276   0.279   0.281   0.289   0.284   0.287   0.283   0.285   0.286   0.281   0.277   0.291   0.278   0.276   0.294   0.290   0.293   0.290   0.280   0.279   0.276   0.274   0.278   0.268   0.271   0.278   0.273   0.264   0.261   0.272   0.263   0.272   0.278   0.276
   117.25    0.273   0.271   0.276   0.284   0.277   0.279   0.279   0.283   0.285   0.291   0.288   0.274   0.288   0.286   0.278   0.278   0.287   0.297   0.289   0.292   0.282   0.269   0.271   0.280   0.269   0.280   0.275   0.274   0.273   0.274   0.264   0.270   0.276   0.275   0.277
   112.60    0.280   0.283   0.293   0.287   0.288   0.283   0.277   0.280   0.288   0.277   0.285   0.286   0.278   0.271   0.280   0.272   0.285   0.275   0.290   0.283   0.280   0.278   0.277   0.274   0.269   0.273   0.273   0.266   0.267   0.276   0.272   0.277   0.279   0.283   0.274
   107.95    0.288   0.283   0.287   0.283   0.288   0.286   0.285   0.292   0.296   0.291   0.286   0.274   0.280   0.274   0.275   0.274   0.278   0.279   0.286   0.274   0.273   0.276   0.270   0.277   0.263   0.264   0.265   0.268   0.279   0.278   0.279   0.287   0.278   0.281   0.273
   103.30    0.287   0.284   0.284   0.274   0.275   0.281   0.281   0.284   0.288   0.278   0.275   0.272   0.276   0.272   0.272   0.275   0.283   0.275   0.276   0.276   0.275   0.266   0.278   0.273   0.264   0.259   0.268   0.280   0.290   0.290   0.286   0.288   0.290   0.282   0.279
    98.65    0.286   0.286   0.278   0.281   0.276   0.280   0.278   0.282   0.290   0.280   0.276   0.270   0.270   0.272   0.270   0.279   0.290   0.281   0.278   0.273   0.277   0.276   0.278   0.276   0.264   0.261   0.273   0.277   0.287   0.286   0.281   0.279   0.285   0.281   0.279
    94.00    0.286   0.281   0.270   0.274   0.283   0.279   0.282   0.284   0.276   0.279   0.279   0.281   0.281   0.276   0.281   0.283   0.279   0.281   0.276   0.277   0.284   0.282   0.285   0.274   0.269   0.262   0.263   0.269   0.276   0.287   0.287   0.287   0.279   0.270   0.269
    89.35    0.281   0.284   0.277   0.278   0.275   0.282   0.283   0.282   0.280   0.286   0.277   0.287   0.285   0.279   0.281   0.280   0.291   0.292   0.282   0.278   0.285   0.282   0.284   0.281   0.272   0.279   0.262   0.264   0.270   0.288   0.296   0.286   0.277   0.273   0.278
    84.70    0.285   0.284   0.285   0.286   0.280   0.280   0.278   0.284   0.280   0.279   0.280   0.279   0.273   0.291   0.289   0.286   0.288   0.290   0.272   0.275   0.277   0.279   0.282   0.271   0.272   0.275   0.275   0.266   0.271   0.281   0.282   0.288   0.285   0.273   0.273
    80.05    0.285   0.282   0.280   0.290   0.287   0.280   0.278   0.275   0.278   0.277   0.279   0.287   0.283   0.286   0.285   0.278   0.291   0.270   0.270   0.275   0.287   0.286   0.285   0.295   0.282   0.290   0.279   0.275   0.271   0.276   0.285   0.278   0.272   0.275   0.260
    75.40    0.281   0.284   0.285   0.283   0.280   0.273   0.276   0.275   0.275   0.271   0.287   0.283   0.284   0.282   0.292   0.280   0.279   0.274   0.274   0.288   0.292   0.291   0.294   0.296   0.303   0.283   0.273   0.274   0.276   0.261   0.275   0.280   0.274   0.263   0.267
    70.75    0.277   0.285   0.276   0.279   0.283   0.276   0.270   0.273   0.265   0.276   0.287   0.285   0.286   0.283   0.280   0.284   0.277   0.280   0.286   0.282   0.292   0.299   0.301   0.299   0.289   0.283   0.270   0.279   0.277   0.265   0.261   0.270   0.277   0.276   0.274
    66.10    0.270   0.283   0.288   0.286   0.283   0.281   0.277   0.274   0.279   0.281   0.287   0.285   0.277   0.282   0.289   0.286   0.284   0.282   0.289   0.283   0.289   0.307   0.313   0.297   0.282   0.278   0.289   0.288   0.280   0.269   0.276   0.279   0.275   0.278   0.275
    61.45    0.273   0.280   0.280   0.288   0.283   0.290   0.281   0.290   0.284   0.281   0.281   0.278   0.293   0.289   0.281   0.284   0.294   0.293   0.292   0.290   0.301   0.303   0.299   0.291   0.278   0.283   0.284   0.277   0.283   0.274   0.266   0.269   0.260   0.257   0.269
    56.80    0.282   0.284   0.282   0.281   0.290   0.289   0.285   0.287   0.282   0.277   0.280   0.272   0.296   0.283   0.282   0.281   0.283   0.292   0.297   0.278   0.290   0.298   0.290   0.288   0.279   0.286   0.278   0.277   0.280   0.282   0.277   0.272   0.272   0.270   0.272
    52.15    0.279   0.286   0.284   0.283   0.286   0.291   0.287   0.278   0.278   0.277   0.272   0.277   0.286   0.291   0.280   0.270   0.277   0.278   0.286   0.282   0.282   0.284   0.275   0.284   0.292   0.299   0.284   0.289   0.278   0.276   0.274   0.270   0.276   0.272   0.271
    47.50    0.279   0.274   0.281   0.282   0.279   0.280   0.285   0.273   0.270   0.282   0.274   0.283   0.283   0.281   0.280   0.272   0.272   0.275   0.281   0.274   0.279   0.272   0.271   0.286   0.289   0.292   0.288   0.275   0.272   0.275   0.280   0.273   0.274   0.280   0.270
    42.85    0.272   0.273   0.280   0.283   0.272   0.273   0.273   0.273   0.276   0.270   0.273   0.273   0.275   0.273   0.274   0.269   0.272   0.282   0.281   0.277   0.277   0.275   0.278   0.280   0.279   0.278   0.272   0.276   0.274   0.277   0.268   0.268   0.276   0.281   0.270
    38.20    0.276   0.270   0.284   0.277   0.275   0.272   0.264   0.264   0.272   0.266   0.268   0.273   0.278   0.279   0.284   0.274   0.280   0.283   0.280   0.273   0.282   0.277   0.280   0.283   0.275   0.274   0.267   0.266   0.271   0.277   0.282   0.269   0.276   0.279   0.275
    33.55    0.276   0.283   0.283   0.280   0.279   0.275   0.264   0.269   0.276   0.279   0.274   0.274   0.277   0.270   0.274   0.286   0.284   0.281   0.275   0.283   0.276   0.285   0.277   0.277   0.277   0.276   0.271   0.272   0.275   0.272   0.270   0.273   0.265   0.269   0.268
    28.90    0.280   0.264   0.279   0.276   0.273   0.275   0.279   0.283   0.284   0.275   0.278   0.275   0.273   0.279   0.279   0.286   0.283   0.291   0.277   0.271   0.273   0.281   0.280   0.281   0.276   0.288   0.277   0.274   0.281   0.262   0.263   0.249   0.261   0.263   0.258
    24.25    0.272   0.264   0.265   0.263   0.270   0.277   0.282   0.284   0.279   0.280   0.281   0.275   0.280   0.283   0.287   0.286   0.286   0.286   0.283   0.272   0.279   0.280   0.281   0.282   0.277   0.278   0.283   0.279   0.282   0.261   0.260   0.260   0.261   0.264   0.270
    19.60    0.260   0.261   0.261   0.266   0.264   0.268   0.273   0.278   0.274   0.275   0.270   0.272   0.280   0.280   0.277   0.280   0.283   0.292   0.281   0.281   0.283   0.280   0.272   0.277   0.272   0.283   0.284   0.278   0.281   0.266   0.268   0.264   0.257   0.268   0.267
    14.95    0.265   0.263   0.261   0.260   0.267   0.268   0.266   0.261   0.267   0.264   0.274   0.271   0.283   0.280   0.282   0.268   0.268   0.275   0.279   0.273   0.274   0.277   0.272   0.281   0.278   0.265   0.276   0.283   0.286   0.277   0.271   0.280   0.268   0.263   0.268
    10.30    0.270   0.269   0.266   0.262   0.272   0.272   0.276   0.271   0.268   0.277   0.280   0.277   0.278   0.275   0.282   0.280   0.274   0.275   0.270   0.275   0.287   0.288   0.284   0.289   0.287   0.268   0.272   0.279   0.279   0.280   0.270   0.265   0.267   0.269   0.273
     5.65    0.272   0.274   0.269   0.270   0.270   0.277   0.271   0.270   0.274   0.269   0.277   0.279   0.272   0.270   0.277   0.276   0.279   0.281   0.269   0.271   0.277   0.292   0.299   0.291   0.287   0.280   0.281   0.275   0.272   0.278   0.276   0.270   0.276   0.269   0.271
     1.00    0.276   0.281   0.270   0.272   0.270   0.277   0.275   0.270   0.271   0.281   0.280   0.281   0.268   0.268   0.278   0.288   0.282   0.282   0.284   0.279   0.287   0.296   0.297   0.295   0.288   0.283   0.273   0.279   0.281   0.270   0.274   0.275   0.272   0.275   0.272

   Mean standard deviation across all grid points:
      u component:    0.583 m/s
      v component:    0.476 m/s
      w component:    0.278 m/s


U-component (X) statistics from the interpolated hub point:

   Mean =   9.9913 m/s
   TI   =   5.6116 %


Processing complete.  6039.9 CPU seconds used.
