
This summary file was generated by TurbSim (from OpenFAST-v3.5.3) on 20-Apr-2025 at 12:33:39.


Runtime Options:

**********  Random seed #1
    RANLUX  Type of random number generator
         F  Output binary HH turbulence parameters?
         F  Output formatted turbulence parameters?
         F  Output AeroDyn HH files?
         T  Output AeroDyn FF files?
         F  Output BLADED FF files?
         F  Output tower data?
         F  Output HAWC FF files?
         F  Output formatted FF files?
         T  Output coherent turbulence time step file?
 0 -  NONE  IEC turbulence models scaled to exact specified standard deviation


Turbine/Model Specifications:

        37  Vertical grid-point matrix dimension
        35  Horizontal grid-point matrix dimension
     0.250  Time step [seconds]
   900.000  Analysis time [seconds]
   900.000  Usable output time [seconds]
    89.350  Hub height [m]
   167.400  Grid height [m]
   158.100  Grid width [m]
     0.000  Vertical flow angle [degrees]
     0.000  Horizontal flow angle [degrees]


Meteorological Boundary Conditions:

    TIMESR  User-input time series spectral model
       N/A  IEC standard
       N/A  IEC turbulence characteristic
       N/A  IEC turbulence type
       N/A  IEC Extreme Turbulence Model (ETM) "c" parameter [m/s]
       PL   Wind profile type
    90.000  Reference height [m]
    10.000  Reference wind speed [m/s]
       N/A  Jet height [m]
     0.120  Power law exponent
     0.030  Surface roughness length [m]


Non-IEC Meteorological Boundary Conditions:

    45.000  Site latitude [degrees]
     0.050  Gradient Richardson number
     0.480  Friction or shear velocity [m/s]
       N/A  Mixing layer depth [m]
       N/A  Mean hub u'w' Reynolds stress
       N/A  Mean hub u'v' Reynolds stress
       N/A  Mean hub v'w' Reynolds stress


Spatial Coherence Models:

       IEC  u-component coherence model
       IEC  v-component coherence model
       IEC  w-component coherence model
(   12.000, 0.353E-03)  u-component coherence parameters
(   12.000, 0.353E-03)  v-component coherence parameters
(   12.000, 0.353E-03)  w-component coherence parameters
       N/A  Coherence exponent


Coherent Turbulence Scaling Parameters:

.\EventData
            Name of the path containing the coherent turbulence data files
       les  Type of coherent turbulence data files
     1.000  Disturbance scale (ratio of wave height to rotor diameter)
     0.500  Fractional location of tower centerline from right
     0.500  Fractional location of hub height from the bottom of the dataset
    30.000  Minimum start time for coherent structures [seconds]


Profiles from User-Defined Time-Series Input:

  Height   Wind Speed   Horizontal Angle   Vertical Angle
   (m)        (m/s)          (deg)              (deg)    
  ------   ----------   ----------------   --------------
   94.00      10.00          -0.63                0.00


You have requested that the following file(s) be generated:

   /kfs3/scratch/agupta/Projects/RL_Incubator/FinalRuns_Veer/Seed4/./FFSim_Seed4/Cond00_v10.0_PL0.12_TI6.0/Case3_wdirp06/Seed_7/TurbSim/HighT2.bts (AeroDyn/TurbSim full-field wind file)


Turbulence Simulation Scaling Parameter Summary:

   Turbulence model used                            =  User-input time series
   Gradient Richardson number                       =    0.050
   Monin-Obukhov (M-O) z/L parameter                =    0.067
   Monin-Obukhov (M-O) length scale                 = 1340.250 m
   Mean wind speed at hub height                    =    9.991 m/s

   Wind profile type                                =  Power law
   Power law exponent                               =    0.120
   Mean shear across rotor disk                     =    0.019 (m/s)/m
   Assumed rotor diameter                           =  158.100 m
   Surface roughness length                         =    0.030 m

   Nyquist frequency of turbulent wind field        =    2.000 Hz

   Number of time steps in the FFT                  =     3600
   Number of time steps output                      =     3600
   Number of points simulated                       =     1296


Mean Flow Angles:

   Vertical   =   0.0 degrees
   Horizontal =   0.0 degrees

Mean Wind Speed Profile:

   Height    Wind Speed   Horizontal Angle  Vertical Angle  U-comp (X)   V-comp (Y)   W-comp (Z)
     (m)        (m/s)         (degrees)       (degrees)       (m/s)        (m/s)        (m/s)   
   ------    ----------   ----------------  --------------  ----------   ----------   ----------
    168.4       10.78            0.00            0.00         10.78         0.00         0.00
    163.7       10.74            0.00            0.00         10.74         0.00         0.00
    159.1       10.71            0.00            0.00         10.71         0.00         0.00
    154.4       10.67            0.00            0.00         10.67         0.00         0.00
    149.8       10.63            0.00            0.00         10.63         0.00         0.00
    145.1       10.59            0.00            0.00         10.59         0.00         0.00
    140.5       10.55            0.00            0.00         10.55         0.00         0.00
    135.8       10.51            0.00            0.00         10.51         0.00         0.00
    131.2       10.46            0.00            0.00         10.46         0.00         0.00
    126.5       10.42            0.00            0.00         10.42         0.00         0.00
    121.9       10.37            0.00            0.00         10.37         0.00         0.00
    117.2       10.32            0.00            0.00         10.32         0.00         0.00
    112.6       10.27            0.00            0.00         10.27         0.00         0.00
    107.9       10.22            0.00            0.00         10.22         0.00         0.00
    103.3       10.17            0.00            0.00         10.17         0.00         0.00
     98.6       10.11            0.00            0.00         10.11         0.00         0.00
     94.0       10.05            0.00            0.00         10.05         0.00         0.00
     89.3        9.99            0.00            0.00          9.99         0.00         0.00
     84.7        9.93            0.00            0.00          9.93         0.00         0.00
     80.0        9.86            0.00            0.00          9.86         0.00         0.00
     75.4        9.79            0.00            0.00          9.79         0.00         0.00
     70.7        9.72            0.00            0.00          9.72         0.00         0.00
     66.1        9.64            0.00            0.00          9.64         0.00         0.00
     61.4        9.55            0.00            0.00          9.55         0.00         0.00
     56.8        9.46            0.00            0.00          9.46         0.00         0.00
     52.1        9.37            0.00            0.00          9.37         0.00         0.00
     47.5        9.26            0.00            0.00          9.26         0.00         0.00
     42.8        9.15            0.00            0.00          9.15         0.00         0.00
     38.2        9.02            0.00            0.00          9.02         0.00         0.00
     33.5        8.88            0.00            0.00          8.88         0.00         0.00
     28.9        8.73            0.00            0.00          8.73         0.00         0.00
     24.2        8.54            0.00            0.00          8.54         0.00         0.00
     19.6        8.33            0.00            0.00          8.33         0.00         0.00
     14.9        8.06            0.00            0.00          8.06         0.00         0.00
     10.3        7.71            0.00            0.00          7.71         0.00         0.00
      5.6        7.17            0.00            0.00          7.17         0.00         0.00
      1.0        5.83            0.00            0.00          5.83         0.00         0.00


Harvested Random Seeds after Generation of the Random Numbers:

     65026800 K 1
            0 K 2


Hub-Height Simulated Turbulence Statistical Summary:

   Type of Wind        Min (m/s)   Mean (m/s)    Max (m/s)  Sigma (m/s)       TI (%)
   ----------------    ---------   ----------    ---------  -----------       ------
   Longitudinal (u)         8.25         9.99        11.61        0.646        6.464
   Lateral (v)             -1.39         0.00         1.49        0.438        4.385
   Vertical (w)            -1.03        -0.00         1.17        0.298        2.986
   U component              8.25         9.99        11.61        0.646        6.464
   V component             -1.39         0.00         1.49        0.438        4.385
   W component             -1.03        -0.00         1.17        0.298        2.986
   Horizontal (U&V)         8.25        10.00        11.62        0.647        6.465
   Total                    8.25        10.01        11.62        0.646        6.460

                       Min Reynolds     Mean Reynolds    Max Reynolds    Correlation
   Product             Stress (m/s)^2   Stress (m/s)^2   Stress (m/s)^2  Coefficient
   ----------------    --------------   --------------   --------------  -----------
   u'w'                     -0.977            -0.013             1.227        -0.068
   u'v'                     -1.255            -0.008             1.509        -0.029
   v'w'                     -1.038            -0.002             0.819        -0.017


   Friction Velocity (Ustar)  =      0.115 m/s
   Maximum Instantaneous TKE  =      1.803 (m/s)^2
   Maximum Instantaneous CTKE =      0.978 (m/s)^2


Grid Point Variance Summary:

   Y-coord  -79.05  -74.40  -69.75  -65.10  -60.45  -55.80  -51.15  -46.50  -41.85  -37.20  -32.55  -27.90  -23.25  -18.60  -13.95   -9.30   -4.65    0.00    4.65    9.30   13.95   18.60   23.25   27.90   32.55   37.20   41.85   46.50   51.15   55.80   60.45   65.10   69.75   74.40   79.05

   Height   Standard deviation at grid points for the u component:
   168.40    0.681   0.696   0.634   0.579   0.538   0.526   0.564   0.488   0.458   0.488   0.523   0.501   0.491   0.518   0.526   0.579   0.636   0.665   0.679   0.740   0.735   0.768   0.734   0.763   0.770   0.696   0.711   0.700   0.679   0.643   0.614   0.608   0.604   0.579   0.565
   163.75    0.664   0.644   0.600   0.601   0.564   0.590   0.577   0.534   0.505   0.517   0.483   0.476   0.498   0.489   0.525   0.587   0.588   0.649   0.735   0.709   0.772   0.806   0.780   0.730   0.700   0.752   0.742   0.689   0.720   0.675   0.691   0.649   0.604   0.596   0.596
   159.10    0.649   0.655   0.590   0.602   0.599   0.627   0.590   0.542   0.559   0.518   0.527   0.518   0.503   0.533   0.544   0.585   0.640   0.681   0.755   0.785   0.778   0.779   0.808   0.742   0.790   0.748   0.710   0.670   0.688   0.697   0.716   0.710   0.674   0.619   0.604
   154.45    0.687   0.648   0.642   0.632   0.631   0.659   0.628   0.634   0.554   0.534   0.560   0.537   0.553   0.575   0.643   0.568   0.647   0.682   0.733   0.745   0.732   0.781   0.791   0.806   0.756   0.755   0.702   0.683   0.720   0.690   0.711   0.727   0.708   0.645   0.609
   149.80    0.701   0.702   0.621   0.650   0.667   0.703   0.640   0.618   0.570   0.626   0.646   0.615   0.583   0.598   0.609   0.565   0.625   0.686   0.688   0.774   0.742   0.723   0.755   0.784   0.774   0.776   0.758   0.722   0.694   0.703   0.680   0.678   0.686   0.663   0.678
   145.15    0.718   0.662   0.645   0.640   0.667   0.674   0.629   0.597   0.603   0.587   0.639   0.643   0.589   0.576   0.599   0.589   0.633   0.681   0.719   0.767   0.742   0.704   0.773   0.775   0.740   0.711   0.763   0.718   0.709   0.709   0.721   0.699   0.680   0.743   0.730
   140.50    0.724   0.741   0.679   0.631   0.634   0.630   0.667   0.635   0.673   0.617   0.620   0.646   0.614   0.614   0.612   0.618   0.655   0.634   0.704   0.782   0.743   0.699   0.739   0.790   0.728   0.770   0.800   0.741   0.729   0.720   0.687   0.731   0.712   0.740   0.766
   135.85    0.714   0.710   0.663   0.666   0.637   0.603   0.610   0.641   0.655   0.686   0.673   0.636   0.665   0.648   0.650   0.652   0.688   0.691   0.706   0.742   0.766   0.760   0.715   0.727   0.774   0.795   0.793   0.765   0.768   0.710   0.652   0.682   0.692   0.765   0.726
   131.20    0.745   0.719   0.710   0.712   0.671   0.625   0.661   0.644   0.680   0.722   0.712   0.706   0.623   0.643   0.627   0.665   0.681   0.695   0.750   0.720   0.707   0.767   0.788   0.763   0.755   0.783   0.729   0.728   0.689   0.664   0.642   0.662   0.660   0.713   0.694
   126.55    0.741   0.767   0.740   0.689   0.666   0.640   0.667   0.686   0.699   0.703   0.661   0.649   0.640   0.668   0.664   0.675   0.672   0.693   0.743   0.767   0.752   0.787   0.811   0.798   0.786   0.863   0.781   0.700   0.747   0.703   0.649   0.689   0.663   0.712   0.713
   121.90    0.762   0.768   0.741   0.697   0.722   0.679   0.664   0.712   0.727   0.664   0.658   0.691   0.693   0.712   0.649   0.711   0.711   0.721   0.725   0.701   0.708   0.722   0.814   0.819   0.845   0.856   0.836   0.778   0.729   0.744   0.682   0.642   0.695   0.705   0.711
   117.25    0.766   0.785   0.683   0.743   0.724   0.733   0.723   0.747   0.751   0.688   0.730   0.687   0.711   0.655   0.652   0.699   0.680   0.665   0.655   0.716   0.740   0.776   0.803   0.730   0.806   0.821   0.741   0.749   0.754   0.701   0.710   0.733   0.688   0.663   0.694
   112.60    0.730   0.725   0.725   0.746   0.697   0.723   0.749   0.783   0.766   0.703   0.705   0.707   0.712   0.682   0.675   0.713   0.680   0.690   0.702   0.719   0.773   0.778   0.749   0.759   0.762   0.785   0.724   0.712   0.743   0.688   0.702   0.694   0.713   0.697   0.728
   107.95    0.694   0.712   0.741   0.726   0.751   0.760   0.770   0.772   0.762   0.762   0.704   0.687   0.687   0.728   0.687   0.684   0.684   0.691   0.769   0.784   0.762   0.750   0.803   0.741   0.787   0.764   0.748   0.704   0.684   0.724   0.674   0.675   0.697   0.694   0.667
   103.30    0.718   0.711   0.685   0.755   0.711   0.733   0.731   0.727   0.730   0.781   0.738   0.729   0.710   0.691   0.689   0.697   0.711   0.693   0.697   0.705   0.746   0.724   0.754   0.734   0.738   0.745   0.720   0.708   0.692   0.670   0.723   0.659   0.669   0.650   0.700
    98.65    0.686   0.719   0.701   0.686   0.733   0.699   0.736   0.787   0.823   0.767   0.774   0.721   0.715   0.723   0.677   0.649   0.609   0.668   0.678   0.700   0.691   0.699   0.704   0.683   0.666   0.684   0.656   0.684   0.659   0.656   0.659   0.653   0.661   0.691   0.692
    94.00    0.748   0.713   0.643   0.702   0.678   0.701   0.723   0.767   0.807   0.827   0.751   0.740   0.745   0.708   0.627   0.659   0.619   0.641   0.671   0.670   0.704   0.708   0.669   0.660   0.632   0.646   0.628   0.599   0.635   0.612   0.672   0.620   0.594   0.643   0.616
    89.35    0.692   0.719   0.704   0.730   0.685   0.685   0.727   0.797   0.808   0.799   0.753   0.729   0.748   0.701   0.688   0.682   0.628   0.646   0.655   0.642   0.676   0.653   0.615   0.569   0.629   0.630   0.636   0.633   0.651   0.639   0.646   0.631   0.654   0.618   0.641
    84.70    0.721   0.702   0.763   0.696   0.684   0.742   0.758   0.787   0.761   0.741   0.734   0.765   0.751   0.713   0.670   0.664   0.627   0.658   0.655   0.659   0.638   0.592   0.578   0.604   0.626   0.632   0.638   0.644   0.620   0.676   0.690   0.627   0.653   0.647   0.640
    80.05    0.738   0.708   0.728   0.725   0.702   0.710   0.793   0.818   0.726   0.709   0.749   0.735   0.706   0.757   0.700   0.659   0.640   0.650   0.663   0.669   0.648   0.595   0.577   0.602   0.661   0.664   0.654   0.662   0.684   0.705   0.670   0.642   0.657   0.681   0.668
    75.40    0.820   0.751   0.721   0.712   0.729   0.776   0.788   0.765   0.759   0.757   0.703   0.735   0.783   0.745   0.675   0.635   0.655   0.644   0.664   0.629   0.616   0.599   0.595   0.655   0.661   0.688   0.732   0.688   0.698   0.679   0.689   0.697   0.706   0.654   0.645
    70.75    0.810   0.847   0.744   0.728   0.750   0.805   0.782   0.742   0.761   0.801   0.716   0.721   0.756   0.718   0.691   0.667   0.636   0.644   0.648   0.678   0.646   0.645   0.602   0.659   0.688   0.716   0.708   0.684   0.716   0.693   0.686   0.684   0.711   0.704   0.685
    66.10    0.880   0.821   0.776   0.753   0.797   0.803   0.775   0.756   0.771   0.776   0.717   0.739   0.717   0.768   0.702   0.707   0.668   0.639   0.662   0.700   0.683   0.687   0.628   0.675   0.687   0.654   0.668   0.694   0.659   0.691   0.696   0.707   0.662   0.731   0.706
    61.45    0.835   0.812   0.782   0.750   0.807   0.804   0.854   0.832   0.748   0.764   0.746   0.722   0.738   0.752   0.758   0.761   0.719   0.659   0.725   0.713   0.739   0.707   0.678   0.680   0.630   0.644   0.685   0.695   0.645   0.701   0.749   0.743   0.742   0.717   0.697
    56.80    0.857   0.817   0.762   0.752   0.781   0.789   0.803   0.835   0.779   0.761   0.713   0.708   0.684   0.721   0.703   0.732   0.720   0.670   0.712   0.770   0.742   0.692   0.620   0.625   0.656   0.681   0.684   0.680   0.663   0.668   0.734   0.751   0.759   0.692   0.722
    52.15    0.794   0.791   0.762   0.761   0.790   0.764   0.779   0.837   0.773   0.775   0.711   0.706   0.684   0.679   0.692   0.716   0.689   0.694   0.702   0.721   0.710   0.652   0.645   0.644   0.674   0.672   0.708   0.728   0.691   0.724   0.757   0.767   0.771   0.727   0.737
    47.50    0.794   0.725   0.761   0.782   0.805   0.780   0.820   0.827   0.829   0.806   0.781   0.722   0.725   0.725   0.756   0.686   0.696   0.706   0.712   0.658   0.687   0.651   0.656   0.665   0.656   0.656   0.684   0.721   0.708   0.721   0.722   0.724   0.762   0.776   0.787
    42.85    0.782   0.741   0.822   0.848   0.792   0.812   0.791   0.811   0.835   0.854   0.856   0.780   0.769   0.768   0.755   0.759   0.693   0.663   0.664   0.645   0.683   0.614   0.633   0.649   0.651   0.670   0.709   0.673   0.715   0.688   0.713   0.716   0.720   0.804   0.759
    38.20    0.803   0.775   0.820   0.825   0.827   0.800   0.791   0.787   0.815   0.801   0.812   0.761   0.770   0.772   0.773   0.795   0.762   0.727   0.647   0.641   0.660   0.657   0.661   0.627   0.657   0.645   0.677   0.711   0.673   0.681   0.663   0.690   0.679   0.741   0.759
    33.55    0.763   0.774   0.821   0.770   0.841   0.841   0.912   0.865   0.831   0.780   0.781   0.766   0.743   0.716   0.731   0.788   0.738   0.688   0.706   0.665   0.671   0.676   0.657   0.683   0.665   0.646   0.683   0.674   0.648   0.648   0.681   0.710   0.678   0.727   0.731
    28.90    0.760   0.765   0.803   0.771   0.831   0.861   0.865   0.856   0.826   0.846   0.836   0.735   0.689   0.752   0.750   0.784   0.812   0.730   0.747   0.663   0.650   0.686   0.641   0.600   0.631   0.642   0.660   0.696   0.630   0.613   0.667   0.677   0.712   0.724   0.754
    24.25    0.758   0.782   0.783   0.804   0.810   0.788   0.780   0.819   0.838   0.838   0.851   0.731   0.710   0.723   0.739   0.819   0.806   0.781   0.706   0.660   0.687   0.664   0.605   0.564   0.589   0.591   0.612   0.626   0.618   0.641   0.661   0.699   0.678   0.745   0.775
    19.60    0.824   0.854   0.837   0.832   0.793   0.797   0.824   0.752   0.759   0.767   0.801   0.696   0.672   0.677   0.682   0.760   0.830   0.826   0.724   0.711   0.675   0.666   0.633   0.597   0.564   0.651   0.663   0.639   0.622   0.646   0.672   0.729   0.775   0.743   0.778
    14.95    0.801   0.840   0.881   0.897   0.864   0.787   0.773   0.708   0.739   0.721   0.753   0.664   0.618   0.639   0.642   0.714   0.793   0.782   0.720   0.762   0.695   0.642   0.621   0.609   0.585   0.607   0.648   0.641   0.588   0.649   0.705   0.723   0.789   0.745   0.738
    10.30    0.775   0.790   0.826   0.815   0.901   0.868   0.788   0.706   0.689   0.729   0.718   0.688   0.652   0.671   0.635   0.671   0.723   0.703   0.741   0.722   0.662   0.667   0.644   0.650   0.620   0.616   0.644   0.664   0.641   0.633   0.690   0.722   0.711   0.775   0.785
     5.65    0.790   0.700   0.726   0.809   0.863   0.856   0.815   0.733   0.724   0.727   0.710   0.725   0.654   0.681   0.650   0.626   0.699   0.754   0.705   0.701   0.661   0.621   0.677   0.667   0.628   0.620   0.637   0.616   0.627   0.641   0.663   0.704   0.750   0.789   0.787
     1.00    0.725   0.688   0.738   0.735   0.811   0.876   0.800   0.709   0.654   0.700   0.769   0.698   0.644   0.638   0.614   0.627   0.694   0.769   0.693   0.641   0.688   0.635   0.623   0.639   0.623   0.612   0.634   0.616   0.634   0.632   0.667   0.686   0.746   0.760   0.748

   Height   Standard deviation at grid points for the v component:
   168.40    0.435   0.453   0.454   0.487   0.479   0.458   0.451   0.474   0.455   0.463   0.484   0.489   0.482   0.447   0.436   0.416   0.421   0.430   0.414   0.388   0.396   0.398   0.391   0.402   0.417   0.409   0.428   0.428   0.436   0.475   0.460   0.463   0.476   0.475   0.455
   163.75    0.443   0.435   0.449   0.466   0.449   0.464   0.454   0.469   0.476   0.472   0.504   0.488   0.475   0.459   0.455   0.448   0.421   0.418   0.417   0.407   0.400   0.393   0.392   0.396   0.405   0.418   0.408   0.424   0.441   0.469   0.481   0.482   0.478   0.461   0.469
   159.10    0.458   0.460   0.444   0.442   0.442   0.444   0.457   0.470   0.502   0.497   0.505   0.500   0.495   0.468   0.457   0.455   0.440   0.428   0.444   0.419   0.432   0.414   0.429   0.406   0.416   0.443   0.429   0.415   0.422   0.462   0.470   0.488   0.488   0.478   0.488
   154.45    0.459   0.463   0.472   0.479   0.440   0.460   0.459   0.485   0.491   0.518   0.503   0.501   0.502   0.474   0.460   0.437   0.449   0.435   0.438   0.444   0.442   0.431   0.418   0.414   0.438   0.441   0.439   0.410   0.419   0.451   0.468   0.479   0.491   0.464   0.489
   149.80    0.452   0.468   0.461   0.450   0.448   0.462   0.481   0.487   0.494   0.522   0.526   0.504   0.507   0.490   0.476   0.460   0.453   0.444   0.450   0.435   0.448   0.439   0.412   0.430   0.424   0.437   0.404   0.391   0.428   0.443   0.452   0.453   0.475   0.488   0.500
   145.15    0.448   0.461   0.440   0.459   0.441   0.452   0.458   0.472   0.499   0.512   0.498   0.514   0.496   0.520   0.493   0.456   0.459   0.453   0.448   0.438   0.434   0.419   0.420   0.416   0.414   0.414   0.412   0.417   0.416   0.415   0.440   0.446   0.471   0.507   0.496
   140.50    0.462   0.465   0.462   0.470   0.441   0.477   0.463   0.503   0.494   0.497   0.480   0.493   0.504   0.510   0.504   0.475   0.475   0.475   0.450   0.420   0.439   0.431   0.413   0.412   0.416   0.441   0.438   0.423   0.426   0.420   0.433   0.448   0.473   0.468   0.490
   135.85    0.465   0.465   0.463   0.436   0.458   0.464   0.475   0.484   0.456   0.465   0.470   0.493   0.491   0.504   0.518   0.501   0.480   0.473   0.457   0.440   0.438   0.441   0.441   0.424   0.404   0.429   0.467   0.458   0.439   0.453   0.432   0.429   0.461   0.476   0.485
   131.20    0.450   0.463   0.424   0.451   0.464   0.459   0.470   0.468   0.434   0.478   0.479   0.488   0.510   0.509   0.517   0.520   0.499   0.469   0.443   0.443   0.450   0.437   0.430   0.422   0.420   0.446   0.450   0.456   0.448   0.441   0.444   0.447   0.457   0.478   0.486
   126.55    0.471   0.476   0.444   0.434   0.455   0.456   0.451   0.469   0.448   0.457   0.479   0.499   0.506   0.495   0.469   0.474   0.482   0.486   0.452   0.429   0.452   0.448   0.423   0.417   0.451   0.441   0.447   0.444   0.430   0.473   0.499   0.501   0.493   0.505   0.503
   121.90    0.459   0.454   0.467   0.461   0.461   0.456   0.454   0.449   0.445   0.481   0.476   0.473   0.463   0.477   0.449   0.454   0.461   0.481   0.434   0.436   0.465   0.438   0.425   0.435   0.450   0.470   0.460   0.443   0.459   0.483   0.505   0.491   0.492   0.503   0.523
   117.25    0.443   0.444   0.461   0.444   0.461   0.469   0.463   0.451   0.444   0.461   0.467   0.466   0.458   0.459   0.455   0.431   0.452   0.453   0.438   0.456   0.456   0.443   0.419   0.422   0.439   0.458   0.452   0.448   0.482   0.516   0.517   0.491   0.502   0.484   0.486
   112.60    0.461   0.438   0.433   0.435   0.449   0.467   0.497   0.460   0.467   0.470   0.466   0.462   0.433   0.429   0.455   0.437   0.429   0.434   0.405   0.436   0.458   0.452   0.446   0.445   0.479   0.466   0.467   0.453   0.483   0.508   0.510   0.474   0.491   0.486   0.467
   107.95    0.438   0.436   0.434   0.423   0.441   0.459   0.478   0.449   0.441   0.471   0.482   0.466   0.464   0.457   0.448   0.455   0.437   0.440   0.419   0.441   0.453   0.447   0.443   0.460   0.473   0.450   0.477   0.469   0.458   0.478   0.471   0.493   0.478   0.490   0.474
   103.30    0.444   0.432   0.442   0.437   0.449   0.479   0.475   0.454   0.445   0.457   0.484   0.466   0.461   0.460   0.443   0.451   0.439   0.456   0.460   0.431   0.458   0.454   0.436   0.454   0.483   0.484   0.467   0.462   0.462   0.487   0.482   0.482   0.481   0.511   0.477
    98.65    0.426   0.443   0.440   0.433   0.451   0.466   0.456   0.445   0.459   0.463   0.486   0.504   0.481   0.448   0.454   0.455   0.439   0.451   0.475   0.444   0.442   0.440   0.453   0.461   0.474   0.479   0.469   0.457   0.473   0.472   0.492   0.495   0.506   0.527   0.497
    94.00    0.418   0.423   0.438   0.436   0.446   0.444   0.415   0.432   0.468   0.507   0.508   0.506   0.498   0.480   0.443   0.444   0.459   0.443   0.461   0.454   0.438   0.436   0.444   0.464   0.476   0.477   0.471   0.460   0.482   0.515   0.524   0.506   0.502   0.516   0.506
    89.35    0.444   0.417   0.435   0.437   0.423   0.417   0.421   0.434   0.474   0.497   0.484   0.497   0.487   0.475   0.467   0.475   0.460   0.438   0.448   0.463   0.424   0.441   0.445   0.456   0.484   0.480   0.478   0.485   0.494   0.517   0.520   0.507   0.514   0.521   0.507
    84.70    0.419   0.414   0.413   0.431   0.426   0.432   0.439   0.433   0.460   0.467   0.455   0.475   0.490   0.510   0.481   0.478   0.457   0.432   0.446   0.459   0.464   0.456   0.467   0.452   0.470   0.478   0.475   0.472   0.484   0.507   0.514   0.503   0.508   0.530   0.527
    80.05    0.386   0.392   0.424   0.411   0.413   0.420   0.418   0.402   0.433   0.446   0.431   0.458   0.477   0.475   0.461   0.456   0.463   0.447   0.470   0.469   0.451   0.456   0.463   0.452   0.477   0.478   0.460   0.477   0.500   0.498   0.520   0.507   0.503   0.495   0.488
    75.40    0.368   0.400   0.401   0.421   0.403   0.401   0.407   0.404   0.406   0.416   0.445   0.458   0.465   0.440   0.428   0.425   0.449   0.445   0.450   0.458   0.446   0.464   0.466   0.479   0.463   0.470   0.472   0.492   0.488   0.499   0.478   0.512   0.524   0.510   0.472
    70.75    0.386   0.390   0.420   0.427   0.429   0.417   0.406   0.389   0.405   0.433   0.443   0.469   0.452   0.450   0.459   0.458   0.471   0.436   0.452   0.448   0.453   0.477   0.475   0.470   0.486   0.467   0.466   0.494   0.482   0.487   0.496   0.495   0.524   0.488   0.491
    66.10    0.411   0.405   0.395   0.412   0.411   0.413   0.401   0.405   0.421   0.424   0.445   0.451   0.427   0.449   0.447   0.454   0.466   0.427   0.437   0.433   0.465   0.478   0.471   0.474   0.477   0.481   0.480   0.476   0.492   0.497   0.499   0.520   0.498   0.496   0.464
    61.45    0.402   0.388   0.384   0.400   0.397   0.388   0.392   0.399   0.414   0.415   0.442   0.449   0.440   0.447   0.466   0.465   0.455   0.433   0.457   0.456   0.459   0.476   0.481   0.474   0.478   0.491   0.462   0.440   0.478   0.469   0.498   0.499   0.480   0.470   0.443
    56.80    0.396   0.412   0.403   0.389   0.391   0.396   0.389   0.409   0.421   0.429   0.418   0.437   0.429   0.449   0.482   0.494   0.470   0.453   0.457   0.469   0.453   0.459   0.447   0.475   0.486   0.464   0.476   0.439   0.453   0.465   0.510   0.515   0.470   0.463   0.447
    52.15    0.407   0.411   0.388   0.385   0.378   0.391   0.371   0.403   0.427   0.418   0.418   0.426   0.405   0.439   0.476   0.492   0.475   0.445   0.452   0.459   0.450   0.462   0.483   0.492   0.476   0.474   0.462   0.479   0.483   0.493   0.496   0.492   0.511   0.459   0.432
    47.50    0.411   0.404   0.405   0.402   0.394   0.381   0.402   0.424   0.407   0.423   0.435   0.394   0.399   0.427   0.461   0.482   0.471   0.458   0.455   0.473   0.485   0.486   0.471   0.488   0.496   0.491   0.480   0.481   0.476   0.466   0.493   0.502   0.509   0.476   0.461
    42.85    0.429   0.403   0.405   0.414   0.404   0.381   0.390   0.379   0.401   0.421   0.442   0.410   0.413   0.422   0.452   0.468   0.459   0.463   0.454   0.467   0.458   0.485   0.464   0.468   0.491   0.497   0.471   0.486   0.468   0.494   0.495   0.497   0.456   0.470   0.474
    38.20    0.428   0.418   0.401   0.409   0.410   0.393   0.384   0.390   0.373   0.395   0.415   0.416   0.425   0.431   0.439   0.459   0.461   0.454   0.467   0.464   0.460   0.465   0.458   0.468   0.475   0.466   0.488   0.488   0.483   0.467   0.491   0.477   0.478   0.470   0.446
    33.55    0.423   0.415   0.385   0.401   0.400   0.390   0.394   0.393   0.389   0.381   0.397   0.404   0.423   0.443   0.464   0.463   0.470   0.475   0.463   0.475   0.465   0.447   0.444   0.452   0.453   0.449   0.470   0.482   0.475   0.440   0.471   0.467   0.474   0.459   0.451
    28.90    0.421   0.421   0.404   0.393   0.389   0.376   0.382   0.366   0.363   0.371   0.376   0.399   0.401   0.450   0.466   0.467   0.437   0.471   0.441   0.434   0.444   0.420   0.456   0.446   0.467   0.475   0.475   0.459   0.457   0.453   0.463   0.465   0.459   0.463   0.450
    24.25    0.440   0.418   0.420   0.416   0.377   0.374   0.357   0.371   0.357   0.375   0.389   0.404   0.432   0.449   0.461   0.455   0.436   0.437   0.421   0.425   0.414   0.418   0.464   0.464   0.444   0.481   0.475   0.454   0.454   0.439   0.442   0.456   0.449   0.454   0.449
    19.60    0.464   0.423   0.425   0.431   0.398   0.390   0.404   0.379   0.381   0.388   0.390   0.417   0.435   0.434   0.453   0.444   0.453   0.434   0.399   0.394   0.394   0.413   0.447   0.456   0.448   0.469   0.479   0.455   0.452   0.427   0.441   0.457   0.443   0.446   0.427
    14.95    0.452   0.427   0.408   0.423   0.392   0.383   0.382   0.380   0.399   0.396   0.392   0.418   0.426   0.448   0.463   0.470   0.462   0.422   0.424   0.392   0.417   0.420   0.443   0.462   0.457   0.472   0.455   0.446   0.440   0.422   0.449   0.447   0.443   0.449   0.427
    10.30    0.450   0.438   0.396   0.393   0.388   0.378   0.389   0.400   0.395   0.394   0.401   0.411   0.430   0.465   0.470   0.455   0.467   0.455   0.430   0.416   0.415   0.425   0.449   0.451   0.481   0.481   0.464   0.425   0.402   0.411   0.425   0.454   0.463   0.457   0.466
     5.65    0.459   0.442   0.399   0.392   0.374   0.382   0.411   0.401   0.408   0.408   0.403   0.447   0.467   0.485   0.498   0.460   0.460   0.453   0.444   0.432   0.435   0.414   0.428   0.445   0.463   0.474   0.458   0.432   0.418   0.431   0.436   0.444   0.460   0.455   0.466
     1.00    0.466   0.464   0.404   0.396   0.381   0.412   0.411   0.430   0.416   0.446   0.436   0.443   0.449   0.468   0.477   0.461   0.472   0.437   0.439   0.424   0.432   0.409   0.417   0.427   0.441   0.448   0.460   0.440   0.439   0.443   0.473   0.469   0.459   0.435   0.457

   Height   Standard deviation at grid points for the w component:
   168.40    0.321   0.325   0.336   0.327   0.313   0.301   0.296   0.299   0.299   0.291   0.304   0.301   0.314   0.321   0.313   0.311   0.306   0.306   0.295   0.301   0.310   0.310   0.299   0.311   0.294   0.287   0.269   0.278   0.286   0.291   0.297   0.294   0.296   0.292   0.287
   163.75    0.319   0.324   0.331   0.316   0.311   0.300   0.294   0.297   0.296   0.290   0.306   0.297   0.317   0.327   0.319   0.308   0.308   0.300   0.294   0.311   0.319   0.317   0.307   0.318   0.304   0.284   0.275   0.287   0.287   0.290   0.289   0.287   0.296   0.299   0.292
   159.10    0.322   0.321   0.329   0.322   0.306   0.303   0.304   0.295   0.298   0.304   0.294   0.300   0.325   0.315   0.321   0.309   0.299   0.295   0.298   0.303   0.314   0.299   0.305   0.309   0.306   0.284   0.294   0.296   0.293   0.300   0.279   0.283   0.300   0.294   0.286
   154.45    0.306   0.307   0.302   0.310   0.294   0.299   0.296   0.300   0.299   0.306   0.307   0.299   0.313   0.314   0.317   0.304   0.301   0.296   0.302   0.294   0.296   0.309   0.300   0.314   0.311   0.295   0.293   0.298   0.290   0.292   0.290   0.284   0.298   0.290   0.296
   149.80    0.300   0.305   0.306   0.304   0.292   0.288   0.284   0.290   0.299   0.299   0.302   0.295   0.311   0.299   0.294   0.291   0.299   0.298   0.300   0.306   0.299   0.299   0.301   0.309   0.297   0.299   0.296   0.302   0.295   0.303   0.292   0.298   0.296   0.287   0.297
   145.15    0.298   0.301   0.295   0.296   0.302   0.299   0.294   0.299   0.294   0.302   0.305   0.294   0.313   0.315   0.305   0.305   0.309   0.310   0.301   0.298   0.293   0.286   0.280   0.288   0.291   0.290   0.292   0.295   0.295   0.287   0.299   0.289   0.298   0.301   0.295
   140.50    0.295   0.296   0.290   0.283   0.288   0.288   0.281   0.285   0.299   0.300   0.298   0.292   0.304   0.316   0.309   0.296   0.300   0.303   0.302   0.292   0.301   0.286   0.282   0.284   0.292   0.295   0.298   0.291   0.298   0.291   0.293   0.291   0.287   0.288   0.298
   135.85    0.286   0.292   0.291   0.288   0.278   0.290   0.293   0.288   0.298   0.297   0.301   0.302   0.299   0.301   0.296   0.300   0.299   0.303   0.294   0.288   0.293   0.287   0.276   0.290   0.295   0.287   0.290   0.280   0.298   0.285   0.289   0.294   0.292   0.285   0.291
   131.20    0.286   0.286   0.284   0.285   0.285   0.288   0.290   0.292   0.292   0.315   0.302   0.315   0.310   0.307   0.292   0.301   0.305   0.304   0.306   0.298   0.286   0.296   0.282   0.282   0.282   0.277   0.283   0.287   0.298   0.287   0.294   0.291   0.279   0.293   0.281
   126.55    0.292   0.296   0.289   0.278   0.284   0.290   0.286   0.288   0.309   0.326   0.315   0.314   0.308   0.315   0.313   0.296   0.298   0.303   0.295   0.294   0.296   0.288   0.286   0.292   0.282   0.293   0.278   0.288   0.299   0.301   0.288   0.288   0.289   0.286   0.284
   121.90    0.302   0.300   0.302   0.298   0.295   0.290   0.298   0.299   0.317   0.322   0.319   0.309   0.307   0.294   0.301   0.302   0.304   0.294   0.287   0.288   0.293   0.283   0.295   0.284   0.285   0.298   0.296   0.287   0.296   0.302   0.306   0.294   0.296   0.282   0.280
   117.25    0.319   0.308   0.314   0.308   0.305   0.293   0.295   0.298   0.322   0.311   0.312   0.304   0.306   0.303   0.310   0.308   0.295   0.280   0.285   0.292   0.300   0.293   0.291   0.288   0.294   0.299   0.300   0.284   0.288   0.295   0.296   0.303   0.298   0.291   0.293
   112.60    0.312   0.315   0.310   0.304   0.304   0.302   0.296   0.298   0.307   0.313   0.308   0.310   0.313   0.315   0.316   0.310   0.296   0.286   0.281   0.282   0.290   0.290   0.286   0.299   0.291   0.304   0.298   0.294   0.289   0.285   0.289   0.297   0.295   0.285   0.289
   107.95    0.311   0.312   0.306   0.298   0.297   0.307   0.296   0.296   0.301   0.292   0.313   0.318   0.304   0.303   0.301   0.308   0.293   0.290   0.288   0.292   0.285   0.274   0.286   0.280   0.288   0.301   0.299   0.290   0.296   0.292   0.286   0.280   0.276   0.274   0.281
   103.30    0.306   0.312   0.305   0.294   0.287   0.292   0.296   0.303   0.299   0.298   0.313   0.314   0.318   0.314   0.315   0.316   0.301   0.296   0.287   0.299   0.286   0.270   0.276   0.283   0.281   0.290   0.290   0.302   0.297   0.295   0.288   0.278   0.276   0.277   0.285
    98.65    0.293   0.289   0.284   0.290   0.291   0.305   0.293   0.302   0.299   0.310   0.307   0.312   0.307   0.302   0.313   0.320   0.307   0.296   0.292   0.290   0.290   0.280   0.274   0.279   0.283   0.289   0.288   0.288   0.293   0.290   0.288   0.288   0.294   0.272   0.285
    94.00    0.279   0.292   0.284   0.292   0.300   0.290   0.289   0.291   0.291   0.302   0.303   0.303   0.304   0.311   0.307   0.312   0.300   0.295   0.293   0.284   0.298   0.297   0.285   0.290   0.283   0.289   0.300   0.289   0.281   0.283   0.276   0.288   0.289   0.291   0.299
    89.35    0.290   0.290   0.286   0.293   0.286   0.283   0.298   0.287   0.299   0.301   0.303   0.296   0.294   0.310   0.297   0.306   0.306   0.298   0.300   0.303   0.284   0.285   0.297   0.297   0.290   0.290   0.286   0.288   0.287   0.285   0.279   0.287   0.296   0.293   0.285
    84.70    0.290   0.292   0.296   0.294   0.296   0.297   0.296   0.296   0.306   0.308   0.305   0.292   0.298   0.303   0.300   0.310   0.312   0.307   0.292   0.297   0.290   0.284   0.294   0.285   0.288   0.292   0.283   0.278   0.275   0.275   0.293   0.293   0.290   0.277   0.287
    80.05    0.300   0.299   0.292   0.304   0.293   0.296   0.305   0.306   0.300   0.308   0.308   0.298   0.300   0.300   0.310   0.314   0.309   0.314   0.315   0.299   0.294   0.284   0.283   0.282   0.284   0.286   0.274   0.277   0.284   0.270   0.285   0.292   0.288   0.279   0.278
    75.40    0.296   0.288   0.290   0.290   0.296   0.289   0.303   0.305   0.314   0.316   0.305   0.304   0.305   0.308   0.316   0.306   0.318   0.309   0.303   0.301   0.293   0.286   0.286   0.293   0.282   0.277   0.270   0.277   0.263   0.282   0.281   0.276   0.276   0.273   0.279
    70.75    0.295   0.291   0.298   0.283   0.293   0.295   0.303   0.311   0.317   0.311   0.312   0.305   0.313   0.303   0.308   0.307   0.320   0.310   0.301   0.300   0.288   0.285   0.289   0.283   0.280   0.270   0.278   0.270   0.263   0.263   0.277   0.269   0.254   0.256   0.268
    66.10    0.299   0.304   0.293   0.292   0.300   0.309   0.310   0.309   0.322   0.319   0.314   0.311   0.299   0.306   0.304   0.302   0.314   0.322   0.303   0.305   0.291   0.286   0.271   0.283   0.285   0.285   0.274   0.260   0.263   0.256   0.260   0.251   0.243   0.260   0.270
    61.45    0.295   0.310   0.296   0.297   0.296   0.297   0.303   0.315   0.311   0.320   0.312   0.309   0.300   0.302   0.299   0.299   0.308   0.311   0.311   0.302   0.285   0.289   0.284   0.288   0.288   0.295   0.276   0.265   0.259   0.254   0.258   0.250   0.255   0.264   0.270
    56.80    0.297   0.292   0.299   0.292   0.296   0.293   0.302   0.303   0.296   0.311   0.309   0.294   0.302   0.291   0.295   0.293   0.307   0.312   0.319   0.300   0.303   0.278   0.287   0.281   0.291   0.285   0.287   0.271   0.269   0.266   0.267   0.260   0.273   0.267   0.264
    52.15    0.287   0.288   0.288   0.298   0.295   0.293   0.293   0.293   0.313   0.313   0.306   0.298   0.288   0.305   0.305   0.300   0.308   0.314   0.308   0.302   0.292   0.292   0.287   0.288   0.291   0.291   0.293   0.286   0.275   0.276   0.262   0.269   0.269   0.270   0.272
    47.50    0.281   0.289   0.285   0.294   0.289   0.290   0.286   0.287   0.291   0.292   0.303   0.305   0.291   0.290   0.299   0.293   0.300   0.300   0.308   0.300   0.295   0.291   0.298   0.287   0.290   0.288   0.299   0.283   0.262   0.259   0.263   0.269   0.269   0.270   0.277
    42.85    0.283   0.284   0.290   0.298   0.279   0.285   0.285   0.284   0.293   0.302   0.288   0.302   0.302   0.282   0.289   0.289   0.286   0.296   0.305   0.303   0.291   0.295   0.304   0.290   0.297   0.292   0.284   0.280   0.259   0.266   0.259   0.276   0.274   0.285   0.282
    38.20    0.277   0.287   0.293   0.291   0.284   0.287   0.290   0.282   0.293   0.293   0.304   0.302   0.299   0.291   0.283   0.285   0.292   0.296   0.286   0.291   0.292   0.286   0.287   0.294   0.303   0.286   0.272   0.266   0.278   0.274   0.276   0.280   0.277   0.273   0.288
    33.55    0.281   0.286   0.286   0.295   0.284   0.275   0.289   0.285   0.295   0.303   0.286   0.285   0.288   0.274   0.275   0.287   0.282   0.287   0.280   0.284   0.285   0.282   0.292   0.296   0.297   0.283   0.279   0.277   0.277   0.287   0.293   0.290   0.283   0.279   0.292
    28.90    0.282   0.287   0.291   0.294   0.294   0.280   0.283   0.284   0.282   0.295   0.279   0.293   0.282   0.278   0.285   0.280   0.281   0.278   0.281   0.284   0.296   0.288   0.299   0.296   0.297   0.290   0.285   0.275   0.293   0.295   0.302   0.287   0.286   0.282   0.295
    24.25    0.286   0.293   0.288   0.288   0.301   0.288   0.282   0.287   0.294   0.293   0.292   0.283   0.285   0.277   0.285   0.284   0.284   0.279   0.296   0.296   0.296   0.294   0.287   0.290   0.288   0.283   0.277   0.280   0.288   0.289   0.302   0.298   0.292   0.298   0.296
    19.60    0.287   0.281   0.286   0.290   0.289   0.292   0.286   0.290   0.295   0.290   0.293   0.283   0.288   0.289   0.289   0.284   0.286   0.284   0.275   0.286   0.293   0.291   0.303   0.282   0.286   0.290   0.280   0.280   0.296   0.290   0.305   0.311   0.320   0.329   0.337
    14.95    0.290   0.294   0.294   0.301   0.294   0.291   0.292   0.278   0.274   0.286   0.294   0.282   0.276   0.278   0.281   0.281   0.271   0.277   0.273   0.290   0.299   0.291   0.284   0.303   0.292   0.287   0.296   0.295   0.291   0.301   0.313   0.311   0.310   0.325   0.334
    10.30    0.299   0.311   0.308   0.311   0.300   0.282   0.289   0.284   0.280   0.284   0.282   0.276   0.279   0.281   0.279   0.268   0.266   0.273   0.280   0.295   0.295   0.281   0.294   0.291   0.283   0.288   0.289   0.293   0.297   0.300   0.304   0.304   0.305   0.317   0.336
     5.65    0.296   0.301   0.310   0.315   0.309   0.288   0.289   0.282   0.278   0.281   0.292   0.284   0.286   0.287   0.282   0.279   0.278   0.284   0.287   0.296   0.305   0.303   0.297   0.284   0.283   0.284   0.296   0.293   0.295   0.301   0.303   0.298   0.296   0.313   0.324
     1.00    0.288   0.298   0.297   0.300   0.303   0.304   0.295   0.291   0.291   0.290   0.288   0.287   0.286   0.287   0.291   0.292   0.281   0.302   0.297   0.306   0.307   0.291   0.287   0.279   0.286   0.296   0.296   0.299   0.302   0.297   0.300   0.300   0.310   0.304   0.315

   Mean standard deviation across all grid points:
      u component:    0.703 m/s
      v component:    0.451 m/s
      w component:    0.294 m/s


U-component (X) statistics from the interpolated hub point:

   Mean =   9.9913 m/s
   TI   =   6.4645 %


Processing complete.  5830.5 CPU seconds used.
