
This summary file was generated by TurbSim (from OpenFAST-v3.5.3) on 20-Apr-2025 at 01:40:46.


Runtime Options:

 916078875  Random seed #1
    RANLUX  Type of random number generator
         F  Output binary HH turbulence parameters?
         F  Output formatted turbulence parameters?
         F  Output AeroDyn HH files?
         T  Output AeroDyn FF files?
         F  Output BLADED FF files?
         F  Output tower data?
         F  Output HAWC FF files?
         F  Output formatted FF files?
         T  Output coherent turbulence time step file?
 0 -  NONE  IEC turbulence models scaled to exact specified standard deviation


Turbine/Model Specifications:

        37  Vertical grid-point matrix dimension
        35  Horizontal grid-point matrix dimension
     0.250  Time step [seconds]
   900.000  Analysis time [seconds]
   900.000  Usable output time [seconds]
    89.350  Hub height [m]
   167.400  Grid height [m]
   158.100  Grid width [m]
     0.000  Vertical flow angle [degrees]
     0.000  Horizontal flow angle [degrees]


Meteorological Boundary Conditions:

    TIMESR  User-input time series spectral model
       N/A  IEC standard
       N/A  IEC turbulence characteristic
       N/A  IEC turbulence type
       N/A  IEC Extreme Turbulence Model (ETM) "c" parameter [m/s]
       PL   Wind profile type
    90.000  Reference height [m]
    10.000  Reference wind speed [m/s]
       N/A  Jet height [m]
     0.120  Power law exponent
     0.030  Surface roughness length [m]


Non-IEC Meteorological Boundary Conditions:

    45.000  Site latitude [degrees]
     0.050  Gradient Richardson number
     0.480  Friction or shear velocity [m/s]
       N/A  Mixing layer depth [m]
       N/A  Mean hub u'w' Reynolds stress
       N/A  Mean hub u'v' Reynolds stress
       N/A  Mean hub v'w' Reynolds stress


Spatial Coherence Models:

       IEC  u-component coherence model
       IEC  v-component coherence model
       IEC  w-component coherence model
(   12.000, 0.353E-03)  u-component coherence parameters
(   12.000, 0.353E-03)  v-component coherence parameters
(   12.000, 0.353E-03)  w-component coherence parameters
       N/A  Coherence exponent


Coherent Turbulence Scaling Parameters:

.\EventData
            Name of the path containing the coherent turbulence data files
       les  Type of coherent turbulence data files
     1.000  Disturbance scale (ratio of wave height to rotor diameter)
     0.500  Fractional location of tower centerline from right
     0.500  Fractional location of hub height from the bottom of the dataset
    30.000  Minimum start time for coherent structures [seconds]


Profiles from User-Defined Time-Series Input:

  Height   Wind Speed   Horizontal Angle   Vertical Angle
   (m)        (m/s)          (deg)              (deg)    
  ------   ----------   ----------------   --------------
   94.00      10.00          -0.63                0.00


You have requested that the following file(s) be generated:

   /kfs3/scratch/agupta/Projects/RL_Incubator/FinalRuns_Veer/Seed4/./FFSim_Seed4/Cond00_v10.0_PL0.12_TI7.5/Case0_wdirp00/Seed_0/TurbSim/HighT13.bts (AeroDyn/TurbSim full-field wind file)


Turbulence Simulation Scaling Parameter Summary:

   Turbulence model used                            =  User-input time series
   Gradient Richardson number                       =    0.050
   Monin-Obukhov (M-O) z/L parameter                =    0.067
   Monin-Obukhov (M-O) length scale                 = 1340.250 m
   Mean wind speed at hub height                    =    9.991 m/s

   Wind profile type                                =  Power law
   Power law exponent                               =    0.120
   Mean shear across rotor disk                     =    0.019 (m/s)/m
   Assumed rotor diameter                           =  158.100 m
   Surface roughness length                         =    0.030 m

   Nyquist frequency of turbulent wind field        =    2.000 Hz

   Number of time steps in the FFT                  =     3600
   Number of time steps output                      =     3600
   Number of points simulated                       =     1296


Mean Flow Angles:

   Vertical   =   0.0 degrees
   Horizontal =   0.0 degrees

Mean Wind Speed Profile:

   Height    Wind Speed   Horizontal Angle  Vertical Angle  U-comp (X)   V-comp (Y)   W-comp (Z)
     (m)        (m/s)         (degrees)       (degrees)       (m/s)        (m/s)        (m/s)   
   ------    ----------   ----------------  --------------  ----------   ----------   ----------
    168.4       10.78            0.00            0.00         10.78         0.00         0.00
    163.7       10.74            0.00            0.00         10.74         0.00         0.00
    159.1       10.71            0.00            0.00         10.71         0.00         0.00
    154.4       10.67            0.00            0.00         10.67         0.00         0.00
    149.8       10.63            0.00            0.00         10.63         0.00         0.00
    145.1       10.59            0.00            0.00         10.59         0.00         0.00
    140.5       10.55            0.00            0.00         10.55         0.00         0.00
    135.8       10.51            0.00            0.00         10.51         0.00         0.00
    131.2       10.46            0.00            0.00         10.46         0.00         0.00
    126.5       10.42            0.00            0.00         10.42         0.00         0.00
    121.9       10.37            0.00            0.00         10.37         0.00         0.00
    117.2       10.32            0.00            0.00         10.32         0.00         0.00
    112.6       10.27            0.00            0.00         10.27         0.00         0.00
    107.9       10.22            0.00            0.00         10.22         0.00         0.00
    103.3       10.17            0.00            0.00         10.17         0.00         0.00
     98.6       10.11            0.00            0.00         10.11         0.00         0.00
     94.0       10.05            0.00            0.00         10.05         0.00         0.00
     89.3        9.99            0.00            0.00          9.99         0.00         0.00
     84.7        9.93            0.00            0.00          9.93         0.00         0.00
     80.0        9.86            0.00            0.00          9.86         0.00         0.00
     75.4        9.79            0.00            0.00          9.79         0.00         0.00
     70.7        9.72            0.00            0.00          9.72         0.00         0.00
     66.1        9.64            0.00            0.00          9.64         0.00         0.00
     61.4        9.55            0.00            0.00          9.55         0.00         0.00
     56.8        9.46            0.00            0.00          9.46         0.00         0.00
     52.1        9.37            0.00            0.00          9.37         0.00         0.00
     47.5        9.26            0.00            0.00          9.26         0.00         0.00
     42.8        9.15            0.00            0.00          9.15         0.00         0.00
     38.2        9.02            0.00            0.00          9.02         0.00         0.00
     33.5        8.88            0.00            0.00          8.88         0.00         0.00
     28.9        8.73            0.00            0.00          8.73         0.00         0.00
     24.2        8.54            0.00            0.00          8.54         0.00         0.00
     19.6        8.33            0.00            0.00          8.33         0.00         0.00
     14.9        8.06            0.00            0.00          8.06         0.00         0.00
     10.3        7.71            0.00            0.00          7.71         0.00         0.00
      5.6        7.17            0.00            0.00          7.17         0.00         0.00
      1.0        5.83            0.00            0.00          5.83         0.00         0.00


Harvested Random Seeds after Generation of the Random Numbers:

     65026800 K 1
            0 K 2


Hub-Height Simulated Turbulence Statistical Summary:

   Type of Wind        Min (m/s)   Mean (m/s)    Max (m/s)  Sigma (m/s)       TI (%)
   ----------------    ---------   ----------    ---------  -----------       ------
   Longitudinal (u)         7.87         9.99        11.64        0.583        5.836
   Lateral (v)             -1.96        -0.00         1.98        0.604        6.048
   Vertical (w)            -1.13         0.00         1.13        0.343        3.429
   U component              7.87         9.99        11.64        0.583        5.836
   V component             -1.96        -0.00         1.98        0.604        6.048
   W component             -1.13         0.00         1.13        0.343        3.429
   Horizontal (U&V)         7.91        10.01        11.64        0.586        5.850
   Total                    7.91        10.02        11.64        0.585        5.845

                       Min Reynolds     Mean Reynolds    Max Reynolds    Correlation
   Product             Stress (m/s)^2   Stress (m/s)^2   Stress (m/s)^2  Coefficient
   ----------------    --------------   --------------   --------------  -----------
   u'w'                     -1.179            -0.016             0.915        -0.079
   u'v'                     -1.678             0.026             1.786         0.073
   v'w'                     -1.331            -0.004             1.159        -0.019


   Friction Velocity (Ustar)  =      0.125 m/s
   Maximum Instantaneous TKE  =      2.509 (m/s)^2
   Maximum Instantaneous CTKE =      1.020 (m/s)^2


Grid Point Variance Summary:

   Y-coord  -79.05  -74.40  -69.75  -65.10  -60.45  -55.80  -51.15  -46.50  -41.85  -37.20  -32.55  -27.90  -23.25  -18.60  -13.95   -9.30   -4.65    0.00    4.65    9.30   13.95   18.60   23.25   27.90   32.55   37.20   41.85   46.50   51.15   55.80   60.45   65.10   69.75   74.40   79.05

   Height   Standard deviation at grid points for the u component:
   168.40    0.623   0.607   0.614   0.634   0.637   0.626   0.640   0.666   0.638   0.639   0.638   0.624   0.631   0.607   0.594   0.614   0.584   0.556   0.591   0.608   0.601   0.602   0.624   0.620   0.588   0.583   0.549   0.566   0.590   0.563   0.585   0.585   0.587   0.594   0.570
   163.75    0.607   0.610   0.606   0.587   0.591   0.579   0.650   0.634   0.623   0.620   0.623   0.622   0.638   0.624   0.587   0.563   0.563   0.530   0.580   0.557   0.594   0.599   0.599   0.575   0.564   0.546   0.544   0.557   0.566   0.585   0.560   0.565   0.575   0.589   0.579
   159.10    0.583   0.615   0.580   0.594   0.593   0.587   0.588   0.620   0.629   0.614   0.624   0.624   0.633   0.592   0.603   0.575   0.565   0.557   0.562   0.595   0.612   0.602   0.590   0.561   0.563   0.526   0.534   0.548   0.579   0.596   0.590   0.544   0.556   0.583   0.568
   154.45    0.597   0.625   0.615   0.611   0.609   0.599   0.594   0.630   0.625   0.601   0.630   0.617   0.604   0.614   0.576   0.580   0.576   0.578   0.591   0.596   0.640   0.605   0.610   0.611   0.571   0.548   0.540   0.553   0.582   0.552   0.547   0.520   0.555   0.587   0.574
   149.80    0.638   0.648   0.648   0.609   0.618   0.638   0.644   0.619   0.626   0.589   0.598   0.585   0.623   0.609   0.577   0.562   0.597   0.579   0.576   0.625   0.625   0.610   0.619   0.562   0.564   0.584   0.567   0.574   0.562   0.565   0.566   0.544   0.526   0.564   0.548
   145.15    0.679   0.680   0.666   0.644   0.647   0.609   0.635   0.633   0.648   0.607   0.584   0.617   0.628   0.593   0.564   0.544   0.579   0.571   0.589   0.589   0.612   0.627   0.574   0.605   0.613   0.581   0.574   0.564   0.524   0.550   0.554   0.545   0.560   0.571   0.563
   140.50    0.676   0.708   0.667   0.660   0.630   0.647   0.641   0.646   0.644   0.577   0.601   0.618   0.638   0.633   0.607   0.573   0.567   0.597   0.618   0.586   0.606   0.598   0.603   0.588   0.588   0.584   0.576   0.560   0.549   0.541   0.549   0.514   0.547   0.570   0.531
   135.85    0.624   0.666   0.683   0.680   0.645   0.627   0.616   0.648   0.612   0.606   0.608   0.628   0.630   0.618   0.604   0.586   0.564   0.586   0.594   0.596   0.591   0.573   0.575   0.578   0.598   0.582   0.570   0.538   0.591   0.564   0.515   0.530   0.534   0.558   0.527
   131.20    0.643   0.630   0.635   0.637   0.639   0.653   0.646   0.621   0.597   0.589   0.598   0.628   0.648   0.626   0.600   0.576   0.543   0.590   0.584   0.576   0.587   0.557   0.559   0.574   0.579   0.553   0.573   0.563   0.588   0.551   0.523   0.536   0.507   0.540   0.542
   126.55    0.622   0.619   0.617   0.627   0.646   0.663   0.633   0.615   0.610   0.601   0.622   0.643   0.626   0.619   0.584   0.567   0.542   0.532   0.543   0.539   0.538   0.521   0.536   0.587   0.577   0.564   0.563   0.558   0.530   0.527   0.519   0.487   0.469   0.518   0.570
   121.90    0.593   0.620   0.619   0.672   0.676   0.660   0.632   0.622   0.625   0.649   0.650   0.615   0.624   0.594   0.581   0.538   0.516   0.507   0.533   0.525   0.548   0.524   0.521   0.553   0.549   0.549   0.536   0.535   0.504   0.503   0.507   0.479   0.486   0.510   0.561
   117.25    0.599   0.593   0.621   0.634   0.637   0.658   0.614   0.645   0.650   0.656   0.642   0.622   0.603   0.587   0.585   0.548   0.539   0.507   0.503   0.547   0.545   0.550   0.527   0.513   0.514   0.541   0.549   0.512   0.534   0.500   0.492   0.523   0.517   0.522   0.536
   112.60    0.587   0.606   0.613   0.633   0.624   0.628   0.642   0.623   0.616   0.607   0.610   0.634   0.620   0.603   0.564   0.541   0.548   0.496   0.511   0.529   0.545   0.506   0.517   0.527   0.541   0.526   0.520   0.500   0.526   0.501   0.495   0.538   0.538   0.536   0.558
   107.95    0.547   0.602   0.635   0.615   0.649   0.664   0.631   0.590   0.628   0.624   0.596   0.612   0.575   0.576   0.549   0.519   0.557   0.530   0.531   0.524   0.528   0.553   0.548   0.519   0.539   0.541   0.528   0.504   0.514   0.476   0.503   0.532   0.522   0.540   0.527
   103.30    0.574   0.573   0.604   0.639   0.642   0.646   0.648   0.630   0.658   0.662   0.626   0.592   0.609   0.562   0.521   0.545   0.568   0.569   0.538   0.521   0.512   0.542   0.545   0.563   0.558   0.549   0.538   0.534   0.473   0.491   0.482   0.495   0.490   0.532   0.534
    98.65    0.571   0.578   0.618   0.602   0.628   0.646   0.679   0.701   0.670   0.677   0.667   0.633   0.603   0.602   0.537   0.543   0.603   0.605   0.567   0.539   0.536   0.538   0.518   0.544   0.572   0.561   0.522   0.504   0.522   0.511   0.517   0.475   0.470   0.519   0.542
    94.00    0.598   0.596   0.613   0.595   0.598   0.644   0.691   0.690   0.681   0.662   0.681   0.668   0.619   0.601   0.575   0.589   0.625   0.579   0.572   0.535   0.524   0.527   0.536   0.557   0.541   0.553   0.494   0.522   0.516   0.531   0.556   0.510   0.484   0.509   0.549
    89.35    0.588   0.595   0.614   0.614   0.621   0.656   0.681   0.662   0.666   0.682   0.694   0.683   0.630   0.617   0.621   0.625   0.641   0.583   0.560   0.570   0.541   0.560   0.571   0.578   0.556   0.561   0.529   0.508   0.539   0.570   0.557   0.569   0.543   0.524   0.552
    84.70    0.607   0.627   0.611   0.575   0.643   0.629   0.635   0.648   0.676   0.665   0.655   0.665   0.649   0.628   0.626   0.612   0.598   0.602   0.630   0.624   0.590   0.594   0.612   0.580   0.572   0.561   0.565   0.535   0.554   0.569   0.592   0.608   0.582   0.563   0.560
    80.05    0.640   0.628   0.580   0.604   0.644   0.629   0.655   0.684   0.671   0.637   0.666   0.683   0.664   0.629   0.642   0.627   0.607   0.602   0.630   0.646   0.594   0.635   0.619   0.604   0.582   0.551   0.572   0.596   0.586   0.579   0.597   0.587   0.615   0.559   0.555
    75.40    0.632   0.588   0.620   0.633   0.609   0.628   0.645   0.668   0.646   0.678   0.661   0.663   0.648   0.630   0.651   0.626   0.640   0.662   0.632   0.631   0.640   0.621   0.638   0.653   0.614   0.636   0.590   0.601   0.601   0.608   0.639   0.653   0.612   0.563   0.587
    70.75    0.600   0.593   0.614   0.602   0.594   0.625   0.664   0.610   0.640   0.680   0.657   0.667   0.644   0.611   0.641   0.643   0.644   0.667   0.669   0.676   0.650   0.644   0.662   0.663   0.623   0.616   0.621   0.631   0.628   0.650   0.649   0.651   0.637   0.594   0.567
    66.10    0.575   0.595   0.614   0.602   0.635   0.588   0.616   0.616   0.644   0.656   0.645   0.641   0.648   0.660   0.662   0.643   0.672   0.670   0.637   0.674   0.643   0.692   0.661   0.691   0.644   0.650   0.646   0.710   0.683   0.671   0.692   0.683   0.645   0.640   0.598
    61.45    0.601   0.591   0.635   0.625   0.646   0.605   0.595   0.626   0.603   0.634   0.639   0.618   0.652   0.681   0.654   0.683   0.662   0.682   0.673   0.668   0.658   0.657   0.681   0.645   0.663   0.655   0.718   0.715   0.705   0.703   0.723   0.733   0.724   0.637   0.583
    56.80    0.576   0.598   0.651   0.632   0.648   0.601   0.627   0.608   0.613   0.651   0.623   0.669   0.629   0.660   0.701   0.694   0.625   0.633   0.651   0.647   0.643   0.652   0.659   0.664   0.644   0.686   0.736   0.718   0.716   0.707   0.721   0.731   0.709   0.643   0.622
    52.15    0.602   0.576   0.611   0.616   0.628   0.625   0.594   0.603   0.582   0.620   0.623   0.655   0.636   0.636   0.686   0.653   0.673   0.635   0.644   0.659   0.631   0.621   0.644   0.646   0.637   0.669   0.706   0.732   0.687   0.687   0.673   0.694   0.660   0.653   0.642
    47.50    0.582   0.570   0.629   0.581   0.609   0.603   0.622   0.601   0.632   0.647   0.622   0.600   0.622   0.631   0.652   0.614   0.651   0.639   0.650   0.609   0.609   0.611   0.636   0.656   0.686   0.690   0.718   0.711   0.693   0.667   0.646   0.648   0.631   0.644   0.601
    42.85    0.621   0.615   0.630   0.622   0.640   0.612   0.646   0.653   0.657   0.620   0.631   0.634   0.604   0.607   0.616   0.603   0.626   0.621   0.591   0.622   0.625   0.598   0.637   0.626   0.663   0.688   0.691   0.711   0.700   0.671   0.631   0.619   0.653   0.616   0.588
    38.20    0.603   0.646   0.681   0.650   0.652   0.633   0.620   0.658   0.639   0.613   0.658   0.678   0.633   0.603   0.618   0.596   0.595   0.601   0.600   0.601   0.595   0.599   0.593   0.619   0.619   0.640   0.670   0.685   0.696   0.655   0.605   0.624   0.637   0.651   0.585
    33.55    0.564   0.651   0.671   0.661   0.652   0.658   0.625   0.618   0.636   0.622   0.634   0.655   0.647   0.621   0.618   0.644   0.610   0.594   0.588   0.583   0.611   0.609   0.585   0.572   0.620   0.675   0.651   0.673   0.677   0.641   0.585   0.600   0.594   0.621   0.587
    28.90    0.586   0.653   0.672   0.633   0.634   0.635   0.620   0.629   0.618   0.628   0.641   0.642   0.638   0.632   0.646   0.631   0.650   0.619   0.596   0.599   0.602   0.574   0.598   0.607   0.639   0.661   0.669   0.639   0.652   0.605   0.597   0.614   0.612   0.610   0.587
    24.25    0.599   0.667   0.659   0.655   0.631   0.634   0.621   0.627   0.667   0.649   0.653   0.627   0.619   0.625   0.609   0.584   0.620   0.612   0.578   0.607   0.571   0.582   0.568   0.604   0.627   0.603   0.621   0.611   0.619   0.618   0.623   0.614   0.596   0.595   0.607
    19.60    0.611   0.674   0.689   0.692   0.670   0.658   0.676   0.663   0.674   0.675   0.656   0.639   0.645   0.641   0.619   0.620   0.574   0.581   0.571   0.584   0.580   0.545   0.574   0.575   0.622   0.619   0.631   0.647   0.632   0.609   0.592   0.616   0.616   0.584   0.577
    14.95    0.646   0.667   0.667   0.686   0.678   0.673   0.640   0.682   0.673   0.663   0.691   0.647   0.666   0.655   0.646   0.616   0.574   0.583   0.560   0.560   0.578   0.547   0.567   0.605   0.612   0.607   0.633   0.652   0.663   0.622   0.581   0.609   0.597   0.585   0.603
    10.30    0.639   0.649   0.675   0.689   0.715   0.684   0.680   0.689   0.681   0.668   0.689   0.675   0.648   0.638   0.652   0.610   0.567   0.599   0.581   0.586   0.549   0.587   0.606   0.586   0.595   0.621   0.625   0.630   0.644   0.619   0.640   0.674   0.625   0.567   0.580
     5.65    0.652   0.678   0.690   0.697   0.679   0.711   0.674   0.663   0.674   0.688   0.679   0.647   0.634   0.605   0.608   0.612   0.582   0.589   0.609   0.579   0.573   0.587   0.615   0.622   0.598   0.618   0.639   0.652   0.655   0.601   0.650   0.622   0.626   0.611   0.614
     1.00    0.661   0.661   0.711   0.740   0.695   0.682   0.690   0.689   0.664   0.682   0.688   0.649   0.640   0.604   0.620   0.601   0.562   0.576   0.561   0.570   0.551   0.581   0.624   0.578   0.614   0.630   0.630   0.619   0.622   0.613   0.617   0.614   0.622   0.648   0.653

   Height   Standard deviation at grid points for the v component:
   168.40    0.570   0.524   0.577   0.578   0.576   0.582   0.607   0.633   0.620   0.606   0.638   0.634   0.652   0.649   0.673   0.688   0.699   0.681   0.641   0.599   0.625   0.623   0.665   0.679   0.658   0.638   0.652   0.632   0.627   0.592   0.548   0.538   0.498   0.511   0.532
   163.75    0.617   0.561   0.595   0.630   0.620   0.648   0.618   0.629   0.619   0.628   0.623   0.621   0.630   0.681   0.689   0.676   0.677   0.677   0.634   0.609   0.610   0.637   0.635   0.662   0.637   0.614   0.668   0.672   0.650   0.634   0.593   0.540   0.552   0.544   0.542
   159.10    0.612   0.592   0.607   0.640   0.640   0.624   0.610   0.620   0.647   0.614   0.670   0.661   0.668   0.687   0.700   0.714   0.724   0.652   0.677   0.617   0.626   0.651   0.641   0.650   0.625   0.650   0.671   0.694   0.679   0.659   0.644   0.589   0.603   0.610   0.578
   154.45    0.577   0.607   0.618   0.664   0.681   0.649   0.650   0.617   0.622   0.654   0.641   0.655   0.673   0.686   0.690   0.727   0.690   0.668   0.652   0.634   0.651   0.624   0.667   0.676   0.634   0.652   0.671   0.699   0.704   0.693   0.671   0.676   0.608   0.596   0.608
   149.80    0.609   0.590   0.593   0.628   0.672   0.633   0.626   0.634   0.623   0.625   0.640   0.680   0.648   0.672   0.676   0.721   0.642   0.646   0.659   0.654   0.651   0.673   0.696   0.658   0.654   0.676   0.701   0.729   0.743   0.686   0.663   0.664   0.621   0.641   0.639
   145.15    0.606   0.560   0.582   0.588   0.627   0.627   0.650   0.664   0.632   0.635   0.652   0.650   0.666   0.661   0.665   0.679   0.641   0.624   0.632   0.675   0.671   0.667   0.654   0.670   0.673   0.676   0.722   0.713   0.724   0.662   0.691   0.644   0.654   0.634   0.654
   140.50    0.627   0.594   0.605   0.629   0.601   0.591   0.618   0.671   0.659   0.649   0.668   0.700   0.670   0.653   0.649   0.653   0.682   0.709   0.682   0.693   0.703   0.697   0.692   0.686   0.662   0.653   0.679   0.683   0.686   0.728   0.694   0.674   0.654   0.656   0.645
   135.85    0.625   0.622   0.605   0.617   0.647   0.639   0.615   0.642   0.691   0.672   0.669   0.677   0.672   0.638   0.662   0.682   0.681   0.690   0.721   0.697   0.730   0.746   0.712   0.692   0.667   0.672   0.635   0.658   0.689   0.707   0.730   0.711   0.666   0.641   0.627
   131.20    0.622   0.640   0.632   0.629   0.633   0.654   0.634   0.645   0.669   0.668   0.647   0.646   0.638   0.596   0.637   0.679   0.696   0.710   0.694   0.697   0.695   0.728   0.729   0.694   0.668   0.675   0.649   0.643   0.683   0.707   0.668   0.698   0.669   0.653   0.630
   126.55    0.602   0.616   0.642   0.668   0.683   0.655   0.633   0.645   0.679   0.666   0.654   0.654   0.634   0.611   0.651   0.673   0.660   0.680   0.687   0.698   0.702   0.680   0.684   0.672   0.627   0.647   0.665   0.670   0.664   0.682   0.681   0.709   0.662   0.677   0.684
   121.90    0.635   0.589   0.617   0.664   0.692   0.665   0.648   0.662   0.651   0.626   0.607   0.589   0.616   0.645   0.635   0.652   0.667   0.705   0.658   0.702   0.661   0.653   0.683   0.677   0.650   0.643   0.683   0.680   0.633   0.676   0.651   0.643   0.666   0.698   0.679
   117.25    0.693   0.675   0.672   0.706   0.712   0.714   0.671   0.613   0.603   0.597   0.596   0.623   0.616   0.637   0.613   0.628   0.639   0.667   0.689   0.657   0.682   0.672   0.705   0.701   0.638   0.662   0.690   0.671   0.618   0.638   0.627   0.647   0.643   0.644   0.637
   112.60    0.743   0.714   0.718   0.707   0.693   0.706   0.642   0.657   0.622   0.595   0.610   0.639   0.649   0.619   0.636   0.603   0.615   0.646   0.671   0.673   0.693   0.689   0.684   0.686   0.659   0.679   0.692   0.674   0.635   0.661   0.666   0.606   0.618   0.609   0.636
   107.95    0.754   0.733   0.757   0.744   0.724   0.671   0.673   0.674   0.616   0.618   0.639   0.598   0.632   0.621   0.616   0.625   0.643   0.612   0.655   0.659   0.693   0.666   0.687   0.696   0.651   0.676   0.724   0.681   0.696   0.687   0.639   0.617   0.584   0.599   0.651
   103.30    0.768   0.780   0.734   0.759   0.724   0.738   0.711   0.661   0.641   0.646   0.614   0.616   0.657   0.618   0.622   0.581   0.589   0.629   0.670   0.656   0.673   0.688   0.668   0.678   0.705   0.698   0.712   0.708   0.708   0.710   0.654   0.639   0.624   0.671   0.637
    98.65    0.747   0.802   0.773   0.723   0.732   0.722   0.717   0.683   0.675   0.638   0.627   0.621   0.632   0.631   0.593   0.607   0.586   0.663   0.621   0.612   0.680   0.716   0.698   0.697   0.664   0.733   0.725   0.720   0.704   0.695   0.674   0.647   0.620   0.646   0.640
    94.00    0.798   0.797   0.781   0.764   0.727   0.685   0.671   0.665   0.630   0.638   0.614   0.649   0.651   0.652   0.630   0.626   0.617   0.610   0.636   0.669   0.693   0.706   0.692   0.694   0.686   0.705   0.717   0.722   0.691   0.655   0.647   0.630   0.621   0.637   0.655
    89.35    0.752   0.735   0.741   0.723   0.705   0.694   0.651   0.630   0.604   0.654   0.629   0.625   0.636   0.604   0.572   0.604   0.585   0.604   0.698   0.704   0.702   0.680   0.675   0.707   0.684   0.695   0.670   0.696   0.713   0.668   0.630   0.615   0.602   0.592   0.588
    84.70    0.698   0.710   0.682   0.673   0.631   0.642   0.637   0.607   0.614   0.646   0.630   0.621   0.619   0.617   0.629   0.594   0.624   0.642   0.670   0.702   0.673   0.659   0.700   0.694   0.705   0.702   0.683   0.689   0.667   0.687   0.645   0.611   0.569   0.581   0.577
    80.05    0.689   0.648   0.659   0.663   0.673   0.599   0.635   0.582   0.601   0.606   0.615   0.640   0.658   0.680   0.621   0.604   0.621   0.650   0.659   0.646   0.638   0.674   0.687   0.685   0.670   0.674   0.639   0.646   0.666   0.666   0.643   0.598   0.580   0.588   0.598
    75.40    0.645   0.684   0.660   0.641   0.593   0.608   0.633   0.569   0.604   0.560   0.604   0.620   0.629   0.638   0.598   0.583   0.600   0.617   0.609   0.675   0.639   0.646   0.641   0.647   0.670   0.681   0.653   0.654   0.637   0.672   0.601   0.590   0.567   0.577   0.584
    70.75    0.646   0.655   0.652   0.643   0.649   0.622   0.618   0.655   0.595   0.610   0.590   0.614   0.620   0.581   0.572   0.578   0.589   0.612   0.621   0.627   0.618   0.658   0.601   0.623   0.660   0.614   0.629   0.619   0.602   0.638   0.590   0.583   0.577   0.561   0.557
    66.10    0.642   0.655   0.633   0.593   0.640   0.659   0.658   0.691   0.630   0.598   0.604   0.636   0.604   0.579   0.519   0.535   0.552   0.606   0.654   0.669   0.626   0.596   0.623   0.642   0.631   0.591   0.597   0.588   0.578   0.570   0.580   0.576   0.554   0.580   0.593
    61.45    0.651   0.633   0.591   0.604   0.633   0.704   0.642   0.690   0.654   0.617   0.638   0.658   0.654   0.588   0.530   0.518   0.537   0.582   0.602   0.623   0.597   0.539   0.620   0.610   0.595   0.567   0.583   0.565   0.542   0.563   0.561   0.583   0.579   0.588   0.601
    56.80    0.650   0.660   0.591   0.579   0.601   0.652   0.690   0.698   0.673   0.648   0.636   0.634   0.604   0.559   0.529   0.521   0.533   0.538   0.566   0.579   0.562   0.546   0.578   0.578   0.557   0.560   0.573   0.545   0.538   0.577   0.584   0.605   0.577   0.582   0.626
    52.15    0.624   0.629   0.621   0.564   0.564   0.628   0.660   0.657   0.651   0.658   0.634   0.567   0.548   0.564   0.556   0.502   0.514   0.530   0.543   0.545   0.526   0.546   0.532   0.557   0.541   0.571   0.591   0.547   0.556   0.546   0.555   0.587   0.611   0.605   0.593
    47.50    0.665   0.655   0.616   0.595   0.584   0.640   0.617   0.653   0.661   0.659   0.630   0.594   0.538   0.557   0.526   0.509   0.512   0.504   0.543   0.538   0.562   0.578   0.539   0.550   0.550   0.568   0.567   0.580   0.571   0.578   0.590   0.588   0.592   0.595   0.591
    42.85    0.666   0.655   0.632   0.589   0.620   0.590   0.606   0.617   0.616   0.601   0.586   0.560   0.545   0.544   0.524   0.537   0.536   0.551   0.541   0.590   0.566   0.575   0.567   0.533   0.542   0.599   0.635   0.582   0.569   0.595   0.561   0.571   0.590   0.582   0.593
    38.20    0.653   0.650   0.666   0.610   0.596   0.598   0.555   0.548   0.572   0.576   0.534   0.590   0.600   0.543   0.554   0.545   0.569   0.565   0.592   0.605   0.572   0.535   0.575   0.566   0.587   0.617   0.632   0.625   0.600   0.607   0.568   0.630   0.626   0.592   0.577
    33.55    0.689   0.658   0.647   0.660   0.619   0.592   0.561   0.560   0.536   0.566   0.577   0.573   0.583   0.567   0.581   0.566   0.590   0.599   0.650   0.621   0.585   0.562   0.607   0.595   0.608   0.621   0.634   0.585   0.579   0.642   0.629   0.614   0.596   0.585   0.558
    28.90    0.687   0.663   0.669   0.652   0.659   0.605   0.599   0.556   0.595   0.597   0.616   0.625   0.615   0.601   0.571   0.572   0.601   0.654   0.669   0.627   0.608   0.586   0.626   0.643   0.620   0.611   0.614   0.623   0.606   0.624   0.616   0.617   0.627   0.585   0.567
    24.25    0.679   0.650   0.626   0.631   0.631   0.607   0.592   0.580   0.595   0.600   0.600   0.632   0.583   0.621   0.578   0.600   0.639   0.652   0.702   0.672   0.640   0.625   0.607   0.637   0.658   0.643   0.633   0.630   0.622   0.589   0.588   0.575   0.573   0.551   0.536
    19.60    0.679   0.659   0.632   0.584   0.572   0.580   0.582   0.598   0.598   0.597   0.630   0.649   0.621   0.639   0.629   0.624   0.620   0.671   0.653   0.679   0.655   0.612   0.616   0.639   0.639   0.628   0.631   0.608   0.637   0.619   0.608   0.560   0.553   0.603   0.601
    14.95    0.636   0.655   0.633   0.601   0.591   0.557   0.594   0.621   0.622   0.629   0.633   0.650   0.657   0.663   0.678   0.672   0.665   0.656   0.646   0.682   0.665   0.637   0.652   0.665   0.663   0.633   0.675   0.633   0.617   0.569   0.596   0.580   0.539   0.574   0.571
    10.30    0.659   0.639   0.636   0.591   0.593   0.555   0.594   0.589   0.573   0.595   0.634   0.686   0.722   0.696   0.671   0.646   0.661   0.655   0.682   0.722   0.694   0.694   0.683   0.690   0.665   0.654   0.653   0.673   0.673   0.615   0.637   0.580   0.542   0.506   0.562
     5.65    0.594   0.611   0.642   0.607   0.600   0.580   0.585   0.593   0.566   0.584   0.633   0.669   0.675   0.624   0.680   0.688   0.682   0.695   0.674   0.708   0.726   0.694   0.696   0.712   0.679   0.676   0.711   0.684   0.663   0.609   0.613   0.579   0.577   0.566   0.533
     1.00    0.616   0.635   0.599   0.595   0.593   0.601   0.578   0.594   0.597   0.602   0.608   0.673   0.678   0.626   0.659   0.672   0.702   0.715   0.709   0.677   0.723   0.704   0.722   0.748   0.710   0.695   0.745   0.693   0.704   0.650   0.633   0.613   0.646   0.635   0.609

   Height   Standard deviation at grid points for the w component:
   168.40    0.364   0.355   0.357   0.349   0.336   0.352   0.350   0.361   0.348   0.333   0.343   0.351   0.341   0.345   0.346   0.350   0.362   0.351   0.349   0.358   0.362   0.372   0.368   0.364   0.359   0.368   0.363   0.369   0.357   0.370   0.362   0.366   0.355   0.362   0.372
   163.75    0.351   0.350   0.352   0.345   0.351   0.341   0.352   0.356   0.348   0.341   0.334   0.350   0.349   0.346   0.339   0.357   0.343   0.350   0.357   0.360   0.359   0.357   0.371   0.372   0.370   0.379   0.371   0.360   0.363   0.365   0.382   0.365   0.350   0.365   0.382
   159.10    0.356   0.350   0.352   0.370   0.370   0.362   0.368   0.359   0.351   0.355   0.331   0.349   0.350   0.356   0.359   0.346   0.347   0.353   0.371   0.375   0.356   0.382   0.379   0.369   0.386   0.384   0.364   0.364   0.372   0.366   0.373   0.394   0.368   0.375   0.382
   154.45    0.364   0.357   0.354   0.380   0.367   0.365   0.357   0.352   0.365   0.354   0.347   0.347   0.358   0.364   0.364   0.349   0.345   0.356   0.374   0.368   0.370   0.379   0.390   0.380   0.379   0.374   0.371   0.363   0.380   0.377   0.384   0.381   0.373   0.367   0.377
   149.80    0.364   0.369   0.367   0.370   0.372   0.374   0.363   0.358   0.357   0.366   0.357   0.338   0.349   0.341   0.347   0.341   0.357   0.363   0.379   0.365   0.379   0.381   0.377   0.379   0.368   0.376   0.367   0.381   0.383   0.369   0.387   0.375   0.368   0.387   0.375
   145.15    0.370   0.351   0.362   0.379   0.380   0.373   0.376   0.367   0.369   0.366   0.354   0.346   0.349   0.364   0.337   0.340   0.352   0.359   0.381   0.373   0.375   0.368   0.375   0.381   0.376   0.380   0.390   0.389   0.374   0.369   0.378   0.384   0.378   0.395   0.389
   140.50    0.355   0.350   0.365   0.368   0.364   0.378   0.367   0.373   0.356   0.367   0.355   0.335   0.352   0.375   0.344   0.351   0.358   0.351   0.347   0.361   0.369   0.382   0.380   0.378   0.382   0.409   0.407   0.400   0.388   0.388   0.405   0.388   0.402   0.383   0.380
   135.85    0.354   0.365   0.369   0.373   0.369   0.367   0.372   0.369   0.364   0.366   0.350   0.338   0.357   0.368   0.366   0.360   0.351   0.355   0.345   0.343   0.365   0.383   0.379   0.381   0.392   0.406   0.419   0.408   0.390   0.397   0.409   0.414   0.406   0.390   0.388
   131.20    0.355   0.367   0.374   0.362   0.351   0.364   0.353   0.355   0.359   0.359   0.352   0.347   0.365   0.375   0.363   0.366   0.357   0.351   0.357   0.346   0.346   0.355   0.353   0.377   0.387   0.407   0.394   0.385   0.384   0.407   0.403   0.401   0.401   0.389   0.404
   126.55    0.367   0.356   0.368   0.362   0.362   0.367   0.362   0.351   0.340   0.365   0.362   0.356   0.363   0.365   0.368   0.358   0.362   0.366   0.365   0.348   0.351   0.347   0.349   0.370   0.381   0.394   0.396   0.380   0.403   0.406   0.400   0.387   0.391   0.402   0.407
   121.90    0.360   0.366   0.368   0.358   0.369   0.355   0.353   0.350   0.356   0.355   0.355   0.372   0.345   0.358   0.374   0.376   0.365   0.372   0.363   0.351   0.351   0.337   0.345   0.349   0.370   0.388   0.374   0.364   0.395   0.405   0.387   0.389   0.403   0.407   0.409
   117.25    0.369   0.369   0.367   0.366   0.373   0.372   0.354   0.369   0.359   0.376   0.373   0.375   0.370   0.368   0.371   0.366   0.357   0.363   0.359   0.352   0.344   0.334   0.336   0.347   0.360   0.364   0.354   0.366   0.389   0.397   0.383   0.387   0.391   0.380   0.396
   112.60    0.371   0.367   0.368   0.355   0.361   0.358   0.364   0.378   0.365   0.379   0.360   0.364   0.378   0.372   0.362   0.362   0.356   0.359   0.353   0.353   0.337   0.333   0.347   0.352   0.352   0.359   0.363   0.377   0.393   0.394   0.394   0.384   0.382   0.375   0.372
   107.95    0.381   0.379   0.359   0.351   0.356   0.379   0.368   0.366   0.361   0.357   0.355   0.362   0.370   0.381   0.365   0.357   0.366   0.358   0.367   0.367   0.365   0.357   0.347   0.358   0.356   0.352   0.366   0.370   0.373   0.388   0.404   0.389   0.363   0.361   0.378
   103.30    0.374   0.359   0.347   0.347   0.358   0.351   0.364   0.350   0.358   0.343   0.362   0.367   0.378   0.381   0.355   0.365   0.371   0.381   0.372   0.360   0.365   0.358   0.355   0.376   0.382   0.361   0.357   0.366   0.375   0.392   0.384   0.375   0.375   0.383   0.374
    98.65    0.372   0.354   0.353   0.347   0.344   0.353   0.360   0.354   0.361   0.362   0.376   0.375   0.381   0.373   0.370   0.364   0.366   0.382   0.373   0.359   0.363   0.367   0.370   0.379   0.375   0.382   0.365   0.371   0.387   0.378   0.379   0.380   0.389   0.386   0.378
    94.00    0.362   0.355   0.356   0.358   0.365   0.369   0.366   0.355   0.354   0.359   0.382   0.380   0.373   0.378   0.369   0.365   0.360   0.357   0.352   0.386   0.372   0.373   0.379   0.365   0.377   0.383   0.383   0.354   0.362   0.373   0.386   0.361   0.369   0.382   0.369
    89.35    0.364   0.360   0.364   0.361   0.382   0.380   0.360   0.358   0.357   0.369   0.387   0.384   0.372   0.377   0.374   0.365   0.356   0.343   0.360   0.376   0.367   0.365   0.362   0.386   0.383   0.379   0.382   0.362   0.379   0.386   0.372   0.368   0.374   0.378   0.372
    84.70    0.368   0.352   0.368   0.375   0.379   0.385   0.368   0.369   0.379   0.378   0.381   0.379   0.373   0.377   0.363   0.363   0.361   0.352   0.359   0.362   0.364   0.370   0.372   0.381   0.380   0.375   0.358   0.363   0.366   0.375   0.376   0.380   0.373   0.366   0.369
    80.05    0.362   0.363   0.360   0.365   0.378   0.379   0.382   0.394   0.389   0.395   0.394   0.391   0.374   0.381   0.356   0.342   0.356   0.354   0.364   0.362   0.366   0.370   0.379   0.379   0.375   0.374   0.359   0.364   0.370   0.366   0.376   0.380   0.363   0.360   0.368
    75.40    0.349   0.358   0.363   0.377   0.365   0.372   0.382   0.374   0.371   0.394   0.381   0.383   0.373   0.366   0.349   0.350   0.357   0.354   0.361   0.368   0.361   0.347   0.365   0.375   0.369   0.371   0.361   0.367   0.357   0.372   0.376   0.374   0.374   0.362   0.375
    70.75    0.352   0.358   0.368   0.375   0.369   0.377   0.377   0.370   0.369   0.378   0.377   0.354   0.357   0.350   0.365   0.357   0.350   0.351   0.351   0.354   0.351   0.351   0.360   0.363   0.372   0.367   0.362   0.356   0.357   0.354   0.375   0.365   0.372   0.368   0.374
    66.10    0.354   0.364   0.365   0.360   0.368   0.369   0.370   0.368   0.368   0.376   0.365   0.369   0.353   0.349   0.357   0.361   0.364   0.346   0.352   0.361   0.362   0.356   0.356   0.371   0.372   0.369   0.382   0.376   0.379   0.356   0.357   0.371   0.367   0.359   0.374
    61.45    0.344   0.355   0.365   0.355   0.364   0.354   0.356   0.371   0.360   0.364   0.364   0.360   0.361   0.363   0.355   0.362   0.359   0.359   0.362   0.366   0.359   0.356   0.354   0.368   0.383   0.371   0.375   0.373   0.371   0.356   0.368   0.365   0.370   0.374   0.378
    56.80    0.359   0.358   0.367   0.361   0.349   0.352   0.356   0.367   0.362   0.360   0.367   0.374   0.366   0.368   0.368   0.365   0.363   0.360   0.362   0.362   0.360   0.361   0.362   0.378   0.388   0.370   0.370   0.372   0.364   0.362   0.366   0.365   0.357   0.373   0.377
    52.15    0.346   0.354   0.352   0.348   0.351   0.361   0.364   0.361   0.353   0.356   0.369   0.356   0.360   0.386   0.382   0.366   0.371   0.369   0.368   0.369   0.366   0.376   0.370   0.378   0.392   0.388   0.381   0.374   0.372   0.376   0.379   0.376   0.375   0.389   0.379
    47.50    0.359   0.347   0.350   0.343   0.334   0.348   0.349   0.357   0.358   0.355   0.355   0.349   0.364   0.374   0.374   0.372   0.370   0.361   0.353   0.368   0.379   0.387   0.388   0.383   0.384   0.393   0.381   0.383   0.386   0.389   0.384   0.375   0.372   0.369   0.381
    42.85    0.364   0.358   0.359   0.351   0.342   0.339   0.353   0.363   0.357   0.357   0.357   0.356   0.353   0.373   0.383   0.363   0.361   0.364   0.365   0.371   0.385   0.387   0.387   0.404   0.386   0.397   0.389   0.385   0.378   0.397   0.385   0.378   0.367   0.381   0.395
    38.20    0.360   0.351   0.350   0.357   0.356   0.349   0.347   0.345   0.364   0.354   0.360   0.365   0.365   0.366   0.363   0.353   0.357   0.353   0.365   0.373   0.384   0.386   0.384   0.397   0.387   0.408   0.389   0.385   0.393   0.381   0.389   0.364   0.368   0.352   0.375
    33.55    0.354   0.358   0.350   0.346   0.350   0.352   0.357   0.356   0.360   0.364   0.358   0.362   0.370   0.368   0.356   0.360   0.352   0.361   0.378   0.377   0.382   0.379   0.375   0.398   0.387   0.378   0.398   0.395   0.389   0.368   0.372   0.375   0.355   0.360   0.368
    28.90    0.368   0.363   0.347   0.344   0.357   0.346   0.352   0.357   0.367   0.372   0.373   0.376   0.372   0.373   0.350   0.349   0.355   0.376   0.370   0.374   0.396   0.400   0.396   0.408   0.391   0.391   0.401   0.400   0.379   0.377   0.372   0.382   0.372   0.369   0.373
    24.25    0.355   0.355   0.357   0.347   0.347   0.356   0.347   0.366   0.361   0.368   0.361   0.365   0.381   0.357   0.357   0.350   0.357   0.365   0.381   0.371   0.387   0.390   0.397   0.391   0.390   0.385   0.392   0.400   0.383   0.386   0.384   0.396   0.392   0.391   0.379
    19.60    0.350   0.341   0.336   0.335   0.343   0.340   0.355   0.362   0.350   0.355   0.358   0.375   0.368   0.357   0.355   0.363   0.363   0.361   0.365   0.365   0.392   0.380   0.386   0.367   0.386   0.394   0.394   0.385   0.383   0.390   0.392   0.389   0.388   0.386   0.375
    14.95    0.347   0.336   0.337   0.354   0.343   0.340   0.349   0.360   0.359   0.348   0.359   0.368   0.360   0.367   0.373   0.358   0.368   0.358   0.371   0.363   0.369   0.380   0.384   0.383   0.367   0.374   0.380   0.379   0.368   0.380   0.388   0.378   0.396   0.397   0.384
    10.30    0.360   0.352   0.342   0.347   0.334   0.347   0.355   0.356   0.347   0.351   0.364   0.357   0.357   0.349   0.362   0.362   0.346   0.348   0.364   0.359   0.369   0.371   0.365   0.375   0.369   0.358   0.378   0.376   0.373   0.375   0.379   0.387   0.393   0.405   0.392
     5.65    0.355   0.354   0.361   0.357   0.348   0.347   0.350   0.360   0.345   0.359   0.354   0.356   0.359   0.352   0.340   0.349   0.352   0.354   0.358   0.366   0.362   0.366   0.369   0.367   0.368   0.358   0.371   0.379   0.376   0.376   0.381   0.394   0.401   0.397   0.400
     1.00    0.367   0.366   0.356   0.346   0.358   0.365   0.357   0.357   0.365   0.363   0.357   0.359   0.360   0.353   0.350   0.342   0.347   0.351   0.359   0.357   0.360   0.369   0.361   0.367   0.357   0.360   0.377   0.385   0.375   0.383   0.375   0.395   0.404   0.409   0.422

   Mean standard deviation across all grid points:
      u component:    0.608 m/s
      v component:    0.635 m/s
      w component:    0.367 m/s


U-component (X) statistics from the interpolated hub point:

   Mean =   9.9913 m/s
   TI   =   5.8363 %


Processing complete.  6204.7 CPU seconds used.
