
This summary file was generated by TurbSim (from OpenFAST-v3.5.3) on 19-Apr-2025 at 20:16:15.


Runtime Options:

-228636811  Random seed #1
    RANLUX  Type of random number generator
         F  Output binary HH turbulence parameters?
         F  Output formatted turbulence parameters?
         F  Output AeroDyn HH files?
         T  Output AeroDyn FF files?
         F  Output BLADED FF files?
         F  Output tower data?
         F  Output HAWC FF files?
         F  Output formatted FF files?
         T  Output coherent turbulence time step file?
 0 -  NONE  IEC turbulence models scaled to exact specified standard deviation


Turbine/Model Specifications:

        39  Vertical grid-point matrix dimension
       193  Horizontal grid-point matrix dimension
     0.250  Time step [seconds]
   900.000  Analysis time [seconds]
   900.000  Usable output time [seconds]
   177.700  Hub height [m]
   353.400  Grid height [m]
  1785.600  Grid width [m]
     0.000  Vertical flow angle [degrees]
     0.000  Horizontal flow angle [degrees]


Meteorological Boundary Conditions:

    IECKAI  IEC Kaimal spectral model
         1  IEC standard: IEC 61400-1 Ed. 3: 2005
     7.500  Percent turbulence intensity, IEC 61400-1 Ed. 3: 2005
       NTM  IEC Normal Turbulence Model
       N/A  IEC Extreme Turbulence Model (ETM) "c" parameter [m/s]
       USR  Wind profile type
    90.000  Reference height [m]
       N/A  Reference wind speed [m/s]
       N/A  Jet height [m]
       N/A  Power law exponent
     0.030  Surface roughness length [m]


Non-IEC Meteorological Boundary Conditions:

       N/A  Site latitude [degrees]
       N/A  Gradient Richardson number
       N/A  Friction or shear velocity [m/s]
       N/A  Mixing layer depth [m]
       N/A  Mean hub u'w' Reynolds stress
       N/A  Mean hub u'v' Reynolds stress
       N/A  Mean hub v'w' Reynolds stress


Spatial Coherence Models:

       IEC  u-component coherence model
       IEC  v-component coherence model
       IEC  w-component coherence model
(   12.000, 0.353E-03)  u-component coherence parameters
(   12.000, 0.353E-03)  v-component coherence parameters
(   12.000, 0.353E-03)  w-component coherence parameters
       N/A  Coherence exponent


User-Defined Profiles:

  Height   Wind Speed   Horizontal Angle
   (m)        (m/s)          (deg)      
  ------   ----------   ----------------
  353.40      10.00         318.19
  334.80      10.00         321.14
  316.20      10.00         324.10
  297.60      10.00         327.05
  279.00      10.00         330.00
  260.40      10.00         332.95
  241.80      10.00         335.90
  223.20      10.00         338.86
  204.60      10.00         341.81
  186.00      10.00         344.76
  167.40      10.00         347.71
  148.80      10.00         350.67
  130.20      10.00         353.62
  111.60      10.00         356.57
   93.00      10.00         359.52
   74.40      10.00           2.48
   55.80      10.00           5.43
   37.20      10.00           8.38
   18.60      10.00          11.33
    0.00      10.00          14.29


You have requested that the following file(s) be generated:

   /kfs3/scratch/agupta/Projects/RL_Incubator/FinalRuns_Veer/Seed4/./FFSim_Seed4/Cond00_v10.0_PL0.12_TI7.5/Seed_1/Low.bts (AeroDyn/TurbSim full-field wind file)


Turbulence Simulation Scaling Parameter Summary:

   Turbulence model used                            =  IEC Kaimal
   Turbulence characteristic                        =  User-specified
   IEC standard                                     =  IEC 61400-1 Ed. 3: 2005
   Mean wind speed at hub height                    =   10.000 m/s
   Characteristic value of standard deviation       =    0.750 m/s
   Turbulence scale                                 =   42.000 m
   u-component integral scale                       =  340.200 m
   Coherency scale                                  =  340.200 m
   Characteristic value of hub turbulence intensity =    7.500%
   Gradient Richardson number                       =    0.000

   Wind profile type                                =  Linear interpolation of user-defined profile
   Equivalent power law exponent (upper rotor disk) =    0.000
   Mean shear across rotor disk                     =    0.000 (m/s)/m
   Assumed rotor diameter                           =  353.400 m
   Surface roughness length                         =    0.030 m

   Nyquist frequency of turbulent wind field        =    2.000 Hz

   Number of time steps in the FFT                  =     3600
   Number of time steps output                      =     3600
   Number of points simulated                       =     7527


Mean Flow Angles:

   Vertical   =   0.0 degrees
   Horizontal =   0.0 degrees

Mean Wind Speed Profile:

   Height    Wind Speed   Horizontal Angle  Vertical Angle  U-comp (X)   V-comp (Y)   W-comp (Z)
     (m)        (m/s)         (degrees)       (degrees)       (m/s)        (m/s)        (m/s)   
   ------    ----------   ----------------  --------------  ----------   ----------   ----------
    354.4       10.00          318.19            0.00          7.45        -6.67         0.00
    345.1       10.00          319.51            0.00          7.60        -6.49         0.00
    335.8       10.00          320.98            0.00          7.77        -6.30         0.00
    326.5       10.00          322.46            0.00          7.93        -6.09         0.00
    317.2       10.00          323.94            0.00          8.08        -5.89         0.00
    307.9       10.00          325.41            0.00          8.23        -5.68         0.00
    298.6       10.00          326.89            0.00          8.38        -5.46         0.00
    289.3       10.00          328.37            0.00          8.51        -5.25         0.00
    280.0       10.00          329.84            0.00          8.65        -5.02         0.00
    270.7       10.00          331.32            0.00          8.77        -4.80         0.00
    261.4       10.00          332.79            0.00          8.89        -4.57         0.00
    252.1       10.00          334.27            0.00          9.01        -4.34         0.00
    242.8       10.00          335.75            0.00          9.12        -4.11         0.00
    233.5       10.00          337.22            0.00          9.22        -3.87         0.00
    224.2       10.00          338.70            0.00          9.32        -3.63         0.00
    214.9       10.00          340.17            0.00          9.41        -3.39         0.00
    205.6       10.00          341.65            0.00          9.49        -3.15         0.00
    196.3       10.00          343.13            0.00          9.57        -2.90         0.00
    187.0       10.00          344.60            0.00          9.64        -2.66         0.00
    177.7       10.00          346.08            0.00          9.71        -2.41         0.00
    168.4       10.00          347.56            0.00          9.77        -2.15         0.00
    159.1       10.00          349.03            0.00          9.82        -1.90         0.00
    149.8       10.00          350.51            0.00          9.86        -1.65         0.00
    140.5       10.00          351.98            0.00          9.90        -1.39         0.00
    131.2       10.00          353.46            0.00          9.93        -1.14         0.00
    121.9       10.00          354.94            0.00          9.96        -0.88         0.00
    112.6       10.00          356.41            0.00          9.98        -0.63         0.00
    103.3       10.00          357.89            0.00          9.99        -0.37         0.00
     94.0       10.00          359.37            0.00         10.00        -0.11         0.00
     84.7       10.00          360.84            0.00         10.00         0.15         0.00
     75.4       10.00          362.32            0.00          9.99         0.40         0.00
     66.1       10.00            3.79            0.00          9.98         0.66         0.00
     56.8       10.00            5.27            0.00          9.96         0.92         0.00
     47.5       10.00            6.75            0.00          9.93         1.17         0.00
     38.2       10.00            8.22            0.00          9.90         1.43         0.00
     28.9       10.00            9.70            0.00          9.86         1.68         0.00
     19.6       10.00           11.17            0.00          9.81         1.94         0.00
     10.3       10.00           12.65            0.00          9.76         2.19         0.00
      1.0       10.00           14.13            0.00          9.70         2.44         0.00


Harvested Random Seeds after Generation of the Random Numbers:

    377667225 K 1
            0 K 2


Hub-Height Simulated Turbulence Statistical Summary:

   Type of Wind        Min (m/s)   Mean (m/s)    Max (m/s)  Sigma (m/s)       TI (%)
   ----------------    ---------   ----------    ---------  -----------       ------
   Longitudinal (u)         7.38        10.00        12.35        0.759        7.590
   Lateral (v)             -1.80         0.00         2.22        0.581        5.805
   Vertical (w)            -1.19        -0.00         1.05        0.340        3.401
   U component              6.90         9.71        11.97        0.770        7.934
   V component             -4.02        -2.41        -0.32        0.566        5.829
   W component             -1.19        -0.00         1.05        0.340        3.504
   Horizontal (U&V)         7.46        10.02        12.35        0.757        7.555
   Total                    7.47        10.02        12.35        0.756        7.542

                       Min Reynolds     Mean Reynolds    Max Reynolds    Correlation
   Product             Stress (m/s)^2   Stress (m/s)^2   Stress (m/s)^2  Coefficient
   ----------------    --------------   --------------   --------------  -----------
   u'w'                     -1.870             0.010             1.897         0.038
   u'v'                     -2.322             0.066             3.334         0.149
   v'w'                     -1.409            -0.006             1.119        -0.031


   Friction Velocity (Ustar)  =      0.100 m/s
   Maximum Instantaneous TKE  =      4.052 (m/s)^2
   Maximum Instantaneous CTKE =      1.939 (m/s)^2


Grid Point Variance Summary:

   Y-coord -892.80 -883.50 -874.20 -864.90 -855.60 -846.30 -837.00 -827.70 -818.40 -809.10 -799.80 -790.50 -781.20 -771.90 -762.60 -753.30 -744.00 -734.70 -725.40 -716.10 -706.80 -697.50 -688.20 -678.90 -669.60 -660.30 -651.00 -641.70 -632.40 -623.10 -613.80 -604.50 -595.20 -585.90 -576.60 -567.30 -558.00 -548.70 -539.40 -530.10 -520.80 -511.50 -502.20 -492.90 -483.60 -474.30 -465.00 -455.70 -446.40 -437.10 -427.80 -418.50 -409.20 -399.90 -390.60 -381.30 -372.00 -362.70 -353.40 -344.10 -334.80 -325.50 -316.20 -306.90 -297.60 -288.30 -279.00 -269.70 -260.40 -251.10 -241.80 -232.50 -223.20 -213.90 -204.60 -195.30 -186.00 -176.70 -167.40 -158.10 -148.80 -139.50 -130.20 -120.90 -111.60 -102.30  -93.00  -83.70  -74.40  -65.10  -55.80  -46.50  -37.20  -27.90  -18.60   -9.30    0.00    9.30   18.60   27.90   37.20   46.50   55.80   65.10   74.40   83.70   93.00  102.30  111.60  120.90  130.20  139.50  148.80  158.10  167.40  176.70  186.00  195.30  204.60  213.90  223.20  232.50  241.80  251.10  260.40  269.70  279.00  288.30  297.60  306.90  316.20  325.50  334.80  344.10  353.40  362.70  372.00  381.30  390.60  399.90  409.20  418.50  427.80  437.10  446.40  455.70  465.00  474.30  483.60  492.90  502.20  511.50  520.80  530.10  539.40  548.70  558.00  567.30  576.60  585.90  595.20  604.50  613.80  623.10  632.40  641.70  651.00  660.30  669.60  678.90  688.20  697.50  706.80  716.10  725.40  734.70  744.00  753.30  762.60  771.90  781.20  790.50  799.80  809.10  818.40  827.70  837.00  846.30  855.60  864.90  874.20  883.50  892.80

   Height   Standard deviation at grid points for the u component:
   354.40    0.658   0.652   0.714   0.709   0.734   0.742   0.705   0.650   0.656   0.645   0.650   0.668   0.691   0.694   0.743   0.721   0.709   0.754   0.747   0.716   0.747   0.779   0.763   0.734   0.692   0.657   0.678   0.762   0.789   0.784   0.735   0.728   0.736   0.732   0.676   0.685   0.728   0.706   0.724   0.668   0.680   0.741   0.649   0.719   0.735   0.737   0.764   0.710   0.730   0.733   0.748   0.725   0.715   0.694   0.692   0.668   0.666   0.715   0.683   0.658   0.624   0.616   0.678   0.631   0.633   0.691   0.645   0.672   0.648   0.619   0.674   0.714   0.667   0.655   0.698   0.683   0.655   0.649   0.685   0.721   0.728   0.811   0.773   0.696   0.723   0.678   0.677   0.761   0.708   0.701   0.688   0.700   0.745   0.756   0.776   0.760   0.761   0.735   0.724   0.703   0.675   0.673   0.637   0.672   0.631   0.631   0.622   0.643   0.587   0.618   0.574   0.612   0.599   0.648   0.648   0.670   0.654   0.643   0.665   0.724   0.739   0.719   0.704   0.735   0.664   0.606   0.604   0.558   0.631   0.619   0.624   0.615   0.568   0.599   0.608   0.578   0.582   0.601   0.657   0.723   0.736   0.744   0.703   0.728   0.746   0.697   0.688   0.764   0.753   0.722   0.756   0.676   0.682   0.643   0.683   0.658   0.727   0.772   0.783   0.785   0.820   0.822   0.852   0.875   0.897   0.910   0.988   0.906   0.994   1.040   1.023   0.981   0.895   0.939   0.952   0.919   0.932   0.877   0.859   0.849   0.867   0.850   0.863   0.888   0.849   0.849   0.892   0.889   0.872   0.810   0.822   0.773   0.812
   345.10    0.681   0.690   0.715   0.698   0.699   0.723   0.700   0.661   0.634   0.684   0.724   0.663   0.690   0.735   0.728   0.762   0.723   0.785   0.786   0.743   0.738   0.687   0.722   0.756   0.728   0.707   0.751   0.762   0.796   0.789   0.754   0.756   0.732   0.731   0.752   0.688   0.670   0.691   0.680   0.668   0.653   0.667   0.672   0.702   0.719   0.738   0.802   0.758   0.725   0.701   0.683   0.761   0.696   0.682   0.723   0.693   0.709   0.760   0.698   0.652   0.588   0.613   0.637   0.637   0.667   0.666   0.675   0.667   0.649   0.620   0.680   0.677   0.656   0.670   0.695   0.696   0.679   0.712   0.715   0.661   0.741   0.766   0.739   0.721   0.717   0.661   0.691   0.710   0.715   0.710   0.722   0.664   0.716   0.710   0.736   0.764   0.786   0.762   0.705   0.687   0.654   0.629   0.604   0.622   0.623   0.578   0.582   0.574   0.568   0.585   0.584   0.629   0.629   0.654   0.665   0.686   0.688   0.687   0.706   0.739   0.757   0.734   0.703   0.704   0.666   0.621   0.599   0.558   0.588   0.627   0.620   0.624   0.621   0.614   0.646   0.575   0.576   0.646   0.633   0.692   0.726   0.693   0.708   0.737   0.725   0.649   0.679   0.706   0.670   0.712   0.724   0.702   0.670   0.714   0.724   0.767   0.755   0.808   0.815   0.852   0.848   0.821   0.816   0.839   0.890   0.877   0.917   0.908   0.975   1.043   1.038   0.986   0.915   0.915   1.011   0.970   0.916   0.923   0.941   0.864   0.871   0.886   0.922   0.905   0.880   0.851   0.866   0.831   0.811   0.787   0.812   0.804   0.828
   335.80    0.696   0.659   0.651   0.653   0.659   0.684   0.700   0.641   0.626   0.696   0.706   0.741   0.729   0.721   0.735   0.755   0.759   0.783   0.804   0.761   0.700   0.757   0.771   0.759   0.764   0.754   0.767   0.757   0.744   0.777   0.763   0.755   0.727   0.790   0.735   0.696   0.660   0.609   0.583   0.620   0.685   0.672   0.668   0.625   0.693   0.723   0.741   0.741   0.705   0.705   0.657   0.692   0.695   0.709   0.733   0.737   0.746   0.722   0.653   0.630   0.632   0.616   0.639   0.627   0.647   0.633   0.656   0.701   0.670   0.713   0.678   0.604   0.659   0.692   0.695   0.674   0.676   0.694   0.685   0.678   0.678   0.744   0.734   0.695   0.656   0.666   0.671   0.655   0.661   0.717   0.691   0.682   0.685   0.689   0.745   0.746   0.735   0.739   0.698   0.648   0.649   0.628   0.596   0.552   0.624   0.589   0.578   0.597   0.612   0.571   0.578   0.616   0.636   0.638   0.626   0.661   0.739   0.764   0.765   0.746   0.738   0.705   0.708   0.734   0.671   0.629   0.651   0.612   0.596   0.590   0.594   0.621   0.635   0.667   0.645   0.637   0.602   0.665   0.639   0.665   0.685   0.694   0.738   0.695   0.713   0.676   0.678   0.708   0.732   0.709   0.735   0.691   0.749   0.726   0.753   0.753   0.794   0.796   0.793   0.871   0.875   0.822   0.795   0.850   0.941   0.911   0.899   0.936   0.936   0.983   0.957   0.967   1.001   1.016   1.053   1.059   0.965   0.954   0.900   0.919   0.901   0.910   0.914   0.858   0.882   0.928   0.885   0.858   0.800   0.842   0.819   0.813   0.816
   326.50    0.652   0.667   0.634   0.663   0.650   0.642   0.606   0.633   0.611   0.632   0.699   0.744   0.764   0.718   0.707   0.686   0.740   0.810   0.792   0.778   0.758   0.740   0.808   0.803   0.817   0.762   0.750   0.763   0.770   0.824   0.822   0.769   0.728   0.770   0.790   0.679   0.604   0.568   0.576   0.588   0.637   0.663   0.717   0.648   0.666   0.696   0.702   0.680   0.678   0.693   0.635   0.687   0.683   0.686   0.736   0.812   0.752   0.711   0.658   0.647   0.629   0.653   0.632   0.605   0.604   0.613   0.681   0.696   0.688   0.712   0.676   0.650   0.674   0.690   0.687   0.687   0.675   0.661   0.650   0.684   0.665   0.682   0.685   0.681   0.687   0.646   0.676   0.687   0.696   0.682   0.697   0.669   0.694   0.714   0.708   0.741   0.715   0.742   0.683   0.660   0.653   0.677   0.623   0.566   0.591   0.596   0.581   0.602   0.615   0.615   0.588   0.590   0.599   0.608   0.656   0.663   0.686   0.714   0.711   0.724   0.715   0.710   0.732   0.732   0.675   0.732   0.708   0.656   0.602   0.576   0.590   0.636   0.649   0.654   0.678   0.660   0.641   0.659   0.588   0.598   0.647   0.682   0.668   0.668   0.610   0.638   0.691   0.695   0.711   0.696   0.694   0.690   0.694   0.750   0.755   0.776   0.808   0.814   0.806   0.823   0.862   0.824   0.806   0.860   0.890   0.904   0.895   0.991   0.984   0.897   0.897   0.940   0.993   1.008   0.976   0.976   0.958   0.925   0.930   0.971   0.975   0.987   0.947   0.894   0.909   0.941   0.901   0.883   0.848   0.832   0.884   0.877   0.815
   317.20    0.644   0.651   0.620   0.651   0.672   0.686   0.654   0.606   0.658   0.660   0.657   0.709   0.768   0.802   0.716   0.724   0.740   0.770   0.775   0.773   0.786   0.772   0.792   0.807   0.771   0.758   0.744   0.722   0.794   0.833   0.783   0.721   0.716   0.767   0.773   0.657   0.593   0.583   0.544   0.540   0.555   0.615   0.648   0.644   0.627   0.657   0.688   0.690   0.664   0.697   0.671   0.681   0.665   0.668   0.699   0.778   0.764   0.678   0.671   0.638   0.622   0.653   0.624   0.636   0.628   0.614   0.648   0.670   0.644   0.637   0.655   0.652   0.682   0.667   0.698   0.672   0.682   0.712   0.653   0.642   0.655   0.699   0.699   0.649   0.647   0.652   0.686   0.690   0.667   0.699   0.697   0.749   0.677   0.678   0.727   0.706   0.713   0.728   0.668   0.739   0.661   0.671   0.643   0.646   0.671   0.656   0.628   0.604   0.605   0.627   0.627   0.643   0.610   0.641   0.698   0.703   0.682   0.715   0.742   0.744   0.757   0.752   0.734   0.742   0.732   0.735   0.716   0.671   0.590   0.563   0.578   0.600   0.614   0.677   0.686   0.676   0.660   0.615   0.636   0.642   0.649   0.696   0.676   0.666   0.634   0.674   0.721   0.698   0.655   0.697   0.706   0.684   0.717   0.752   0.696   0.680   0.744   0.777   0.824   0.827   0.834   0.779   0.851   0.867   0.849   0.856   0.864   0.924   0.943   0.915   0.859   0.923   0.943   0.966   0.928   0.937   0.938   0.906   0.894   0.939   0.928   0.963   0.957   0.948   0.898   0.901   0.955   0.965   0.878   0.913   0.898   0.926   0.828
   307.90    0.704   0.677   0.638   0.635   0.640   0.635   0.636   0.653   0.642   0.647   0.686   0.703   0.725   0.831   0.768   0.759   0.825   0.748   0.773   0.779   0.799   0.812   0.816   0.842   0.813   0.731   0.772   0.753   0.796   0.736   0.760   0.741   0.667   0.711   0.685   0.638   0.587   0.565   0.564   0.550   0.569   0.598   0.577   0.603   0.629   0.700   0.705   0.706   0.704   0.711   0.721   0.736   0.695   0.694   0.673   0.715   0.681   0.622   0.677   0.694   0.700   0.639   0.645   0.619   0.623   0.588   0.608   0.634   0.664   0.649   0.666   0.634   0.660   0.661   0.687   0.672   0.666   0.706   0.701   0.692   0.658   0.714   0.691   0.679   0.644   0.639   0.715   0.701   0.753   0.776   0.756   0.761   0.736   0.718   0.691   0.708   0.707   0.691   0.707   0.643   0.642   0.658   0.655   0.659   0.638   0.618   0.588   0.581   0.586   0.640   0.579   0.627   0.632   0.604   0.676   0.671   0.692   0.752   0.732   0.742   0.741   0.717   0.697   0.715   0.743   0.763   0.757   0.718   0.687   0.632   0.623   0.660   0.656   0.666   0.674   0.666   0.648   0.608   0.608   0.605   0.669   0.673   0.678   0.662   0.710   0.679   0.671   0.695   0.712   0.686   0.703   0.664   0.732   0.746   0.732   0.693   0.695   0.730   0.764   0.790   0.781   0.822   0.845   0.884   0.888   0.869   0.852   0.868   0.927   0.887   0.830   0.895   0.930   0.902   0.890   0.877   0.895   0.918   0.897   0.911   0.879   0.927   0.958   0.918   0.893   0.924   0.913   0.944   0.906   0.880   0.858   0.846   0.833
   298.60    0.687   0.671   0.673   0.630   0.604   0.664   0.665   0.731   0.678   0.691   0.658   0.715   0.746   0.759   0.774   0.836   0.841   0.740   0.763   0.803   0.849   0.808   0.789   0.758   0.767   0.726   0.690   0.712   0.741   0.720   0.704   0.687   0.634   0.645   0.673   0.588   0.608   0.561   0.533   0.564   0.627   0.650   0.590   0.628   0.639   0.650   0.675   0.633   0.662   0.706   0.731   0.715   0.653   0.658   0.649   0.649   0.645   0.630   0.695   0.692   0.659   0.630   0.673   0.635   0.640   0.630   0.628   0.638   0.619   0.615   0.622   0.597   0.611   0.665   0.679   0.673   0.662   0.662   0.698   0.720   0.680   0.690   0.693   0.672   0.634   0.639   0.716   0.755   0.749   0.767   0.712   0.703   0.737   0.699   0.709   0.703   0.700   0.687   0.628   0.630   0.656   0.662   0.650   0.648   0.616   0.602   0.557   0.592   0.595   0.612   0.622   0.583   0.644   0.633   0.619   0.654   0.684   0.693   0.695   0.651   0.723   0.693   0.714   0.716   0.699   0.750   0.751   0.666   0.713   0.707   0.688   0.700   0.691   0.630   0.625   0.635   0.654   0.601   0.617   0.640   0.687   0.696   0.642   0.670   0.629   0.644   0.654   0.657   0.707   0.693   0.678   0.719   0.740   0.720   0.739   0.732   0.739   0.732   0.715   0.774   0.784   0.808   0.836   0.872   0.878   0.852   0.839   0.802   0.807   0.836   0.840   0.846   0.882   0.830   0.856   0.876   0.888   0.906   0.866   0.899   0.905   0.934   0.904   0.945   0.949   0.917   0.876   0.876   0.860   0.854   0.848   0.822   0.815
   289.30    0.669   0.650   0.622   0.686   0.679   0.694   0.662   0.676   0.654   0.684   0.691   0.706   0.708   0.712   0.788   0.807   0.804   0.798   0.757   0.801   0.803   0.802   0.797   0.744   0.775   0.754   0.699   0.684   0.699   0.681   0.651   0.654   0.599   0.626   0.609   0.573   0.587   0.558   0.561   0.586   0.582   0.597   0.598   0.607   0.637   0.626   0.619   0.638   0.664   0.672   0.680   0.671   0.620   0.601   0.628   0.627   0.680   0.687   0.710   0.681   0.632   0.688   0.684   0.651   0.662   0.638   0.640   0.656   0.650   0.626   0.584   0.591   0.602   0.663   0.663   0.646   0.648   0.687   0.707   0.670   0.696   0.680   0.617   0.626   0.629   0.631   0.701   0.723   0.741   0.725   0.665   0.682   0.654   0.693   0.708   0.690   0.723   0.673   0.700   0.716   0.691   0.668   0.675   0.683   0.671   0.586   0.603   0.620   0.578   0.624   0.656   0.635   0.647   0.665   0.644   0.636   0.665   0.673   0.676   0.689   0.699   0.693   0.689   0.708   0.668   0.707   0.740   0.700   0.713   0.696   0.691   0.713   0.732   0.701   0.614   0.616   0.630   0.604   0.619   0.680   0.678   0.680   0.634   0.629   0.664   0.645   0.628   0.672   0.678   0.701   0.675   0.701   0.721   0.690   0.687   0.715   0.710   0.751   0.783   0.760   0.751   0.804   0.831   0.819   0.818   0.803   0.762   0.772   0.753   0.754   0.782   0.777   0.810   0.811   0.840   0.886   0.895   0.897   0.874   0.895   0.905   0.957   0.959   0.976   0.936   0.868   0.817   0.847   0.787   0.829   0.834   0.789   0.761
   280.00    0.655   0.705   0.685   0.729   0.685   0.669   0.608   0.643   0.648   0.649   0.648   0.722   0.745   0.722   0.790   0.787   0.774   0.727   0.775   0.762   0.775   0.769   0.778   0.742   0.737   0.728   0.669   0.691   0.702   0.703   0.681   0.658   0.611   0.611   0.619   0.614   0.620   0.625   0.596   0.547   0.554   0.595   0.604   0.650   0.647   0.625   0.632   0.656   0.641   0.621   0.629   0.591   0.603   0.610   0.595   0.636   0.668   0.690   0.705   0.699   0.632   0.642   0.654   0.659   0.656   0.633   0.638   0.669   0.659   0.658   0.606   0.612   0.619   0.642   0.637   0.676   0.652   0.690   0.664   0.696   0.714   0.689   0.622   0.638   0.640   0.636   0.693   0.721   0.718   0.744   0.701   0.674   0.669   0.679   0.719   0.716   0.708   0.701   0.718   0.711   0.723   0.719   0.679   0.684   0.639   0.636   0.616   0.602   0.606   0.661   0.644   0.651   0.671   0.671   0.660   0.664   0.671   0.649   0.674   0.697   0.693   0.708   0.703   0.706   0.716   0.732   0.753   0.714   0.693   0.675   0.722   0.719   0.705   0.648   0.614   0.599   0.618   0.621   0.684   0.601   0.632   0.659   0.611   0.624   0.653   0.669   0.642   0.677   0.687   0.704   0.680   0.664   0.664   0.721   0.788   0.761   0.765   0.767   0.806   0.767   0.754   0.766   0.792   0.769   0.765   0.787   0.780   0.759   0.742   0.749   0.744   0.779   0.765   0.833   0.873   0.894   0.865   0.871   0.897   0.881   0.927   0.960   0.966   0.966   0.938   0.865   0.830   0.744   0.773   0.783   0.832   0.782   0.750
   270.70    0.661   0.705   0.730   0.712   0.710   0.707   0.601   0.642   0.671   0.659   0.665   0.718   0.734   0.768   0.750   0.751   0.764   0.762   0.752   0.764   0.787   0.783   0.725   0.722   0.708   0.714   0.692   0.669   0.690   0.664   0.632   0.629   0.614   0.592   0.605   0.617   0.580   0.592   0.613   0.593   0.561   0.584   0.596   0.622   0.651   0.675   0.672   0.668   0.658   0.587   0.586   0.560   0.599   0.603   0.623   0.676   0.665   0.714   0.716   0.670   0.648   0.627   0.617   0.646   0.667   0.651   0.644   0.650   0.653   0.659   0.617   0.588   0.611   0.645   0.665   0.671   0.662   0.677   0.656   0.671   0.691   0.662   0.642   0.639   0.641   0.641   0.711   0.738   0.752   0.732   0.710   0.668   0.666   0.649   0.680   0.729   0.723   0.668   0.654   0.706   0.746   0.699   0.674   0.703   0.677   0.634   0.647   0.602   0.622   0.643   0.689   0.687   0.741   0.671   0.642   0.634   0.649   0.672   0.695   0.708   0.725   0.692   0.737   0.711   0.684   0.748   0.774   0.714   0.695   0.704   0.748   0.691   0.703   0.659   0.595   0.581   0.614   0.638   0.679   0.620   0.641   0.630   0.633   0.630   0.682   0.703   0.639   0.716   0.754   0.773   0.750   0.715   0.717   0.755   0.791   0.818   0.825   0.784   0.777   0.781   0.755   0.762   0.734   0.772   0.767   0.743   0.736   0.715   0.696   0.733   0.725   0.726   0.762   0.776   0.807   0.815   0.846   0.873   0.854   0.883   0.855   0.892   0.905   0.923   0.946   0.913   0.845   0.830   0.841   0.844   0.783   0.766   0.755
   261.40    0.740   0.701   0.721   0.743   0.742   0.686   0.662   0.713   0.669   0.635   0.670   0.664   0.658   0.714   0.744   0.762   0.765   0.815   0.773   0.760   0.728   0.705   0.710   0.708   0.721   0.710   0.640   0.628   0.619   0.644   0.664   0.625   0.640   0.624   0.569   0.559   0.593   0.604   0.580   0.583   0.569   0.559   0.598   0.668   0.658   0.618   0.624   0.633   0.648   0.629   0.592   0.639   0.659   0.596   0.594   0.740   0.709   0.727   0.711   0.692   0.666   0.645   0.622   0.639   0.697   0.692   0.677   0.637   0.588   0.610   0.653   0.585   0.644   0.658   0.623   0.655   0.690   0.639   0.668   0.677   0.713   0.721   0.691   0.697   0.667   0.727   0.735   0.752   0.710   0.711   0.753   0.696   0.691   0.691   0.663   0.696   0.687   0.677   0.679   0.723   0.724   0.704   0.680   0.650   0.656   0.683   0.688   0.645   0.661   0.640   0.677   0.649   0.687   0.713   0.660   0.591   0.662   0.646   0.740   0.740   0.712   0.709   0.705   0.691   0.695   0.708   0.695   0.700   0.721   0.696   0.735   0.707   0.665   0.666   0.617   0.564   0.634   0.616   0.640   0.684   0.655   0.651   0.640   0.640   0.679   0.658   0.653   0.742   0.811   0.762   0.820   0.793   0.759   0.789   0.877   0.882   0.835   0.790   0.788   0.771   0.728   0.767   0.770   0.781   0.738   0.722   0.708   0.691   0.749   0.747   0.728   0.722   0.772   0.747   0.772   0.817   0.849   0.868   0.831   0.854   0.862   0.872   0.877   0.878   0.895   0.846   0.847   0.816   0.824   0.830   0.724   0.722   0.740
   252.10    0.754   0.723   0.705   0.698   0.712   0.718   0.704   0.691   0.707   0.656   0.686   0.690   0.644   0.679   0.718   0.777   0.741   0.751   0.818   0.766   0.732   0.734   0.707   0.705   0.693   0.672   0.625   0.617   0.594   0.616   0.636   0.640   0.616   0.599   0.592   0.592   0.596   0.636   0.650   0.633   0.611   0.597   0.618   0.619   0.646   0.653   0.658   0.655   0.641   0.658   0.630   0.655   0.637   0.616   0.654   0.713   0.767   0.813   0.735   0.680   0.663   0.666   0.610   0.625   0.625   0.671   0.652   0.627   0.592   0.600   0.616   0.598   0.611   0.596   0.649   0.666   0.653   0.638   0.631   0.683   0.714   0.705   0.694   0.753   0.729   0.736   0.754   0.750   0.734   0.744   0.723   0.727   0.709   0.691   0.663   0.700   0.679   0.662   0.652   0.671   0.717   0.690   0.658   0.665   0.696   0.721   0.704   0.702   0.710   0.667   0.661   0.672   0.645   0.674   0.627   0.650   0.682   0.678   0.695   0.732   0.725   0.734   0.732   0.648   0.660   0.672   0.706   0.674   0.698   0.714   0.691   0.668   0.648   0.675   0.680   0.606   0.635   0.628   0.646   0.623   0.649   0.666   0.655   0.651   0.721   0.715   0.662   0.704   0.773   0.740   0.765   0.787   0.762   0.832   0.864   0.872   0.890   0.799   0.763   0.729   0.742   0.744   0.728   0.719   0.754   0.756   0.781   0.735   0.774   0.781   0.741   0.751   0.755   0.741   0.735   0.745   0.820   0.858   0.816   0.822   0.831   0.880   0.901   0.807   0.856   0.827   0.800   0.834   0.849   0.757   0.763   0.726   0.712
   242.80    0.708   0.711   0.709   0.714   0.673   0.700   0.715   0.711   0.711   0.724   0.721   0.729   0.704   0.695   0.726   0.731   0.752   0.724   0.778   0.759   0.700   0.728   0.764   0.767   0.681   0.670   0.670   0.688   0.604   0.636   0.621   0.640   0.588   0.592   0.612   0.642   0.669   0.657   0.656   0.683   0.630   0.667   0.649   0.677   0.653   0.659   0.694   0.678   0.672   0.687   0.634   0.652   0.672   0.677   0.641   0.678   0.761   0.794   0.790   0.668   0.709   0.644   0.637   0.634   0.623   0.614   0.607   0.649   0.594   0.590   0.583   0.589   0.655   0.628   0.640   0.654   0.667   0.685   0.649   0.682   0.741   0.735   0.754   0.768   0.701   0.717   0.711   0.730   0.768   0.721   0.669   0.680   0.711   0.724   0.734   0.764   0.713   0.687   0.701   0.686   0.717   0.727   0.721   0.685   0.691   0.709   0.742   0.720   0.725   0.706   0.672   0.731   0.703   0.701   0.695   0.666   0.687   0.670   0.659   0.711   0.716   0.717   0.742   0.700   0.682   0.697   0.694   0.693   0.682   0.718   0.681   0.637   0.655   0.636   0.644   0.662   0.643   0.681   0.648   0.666   0.642   0.679   0.688   0.698   0.714   0.642   0.681   0.683   0.727   0.742   0.731   0.727   0.784   0.818   0.817   0.858   0.887   0.832   0.742   0.706   0.749   0.724   0.739   0.728   0.750   0.792   0.725   0.785   0.767   0.767   0.745   0.743   0.746   0.728   0.747   0.756   0.815   0.824   0.803   0.877   0.936   0.925   0.939   0.866   0.883   0.845   0.825   0.819   0.813   0.793   0.686   0.744   0.743
   233.50    0.767   0.751   0.759   0.679   0.658   0.669   0.704   0.706   0.745   0.695   0.732   0.774   0.780   0.702   0.714   0.691   0.749   0.751   0.775   0.724   0.733   0.683   0.756   0.727   0.685   0.644   0.671   0.689   0.649   0.647   0.651   0.657   0.610   0.599   0.659   0.666   0.701   0.668   0.713   0.737   0.687   0.699   0.645   0.669   0.644   0.672   0.646   0.669   0.662   0.661   0.638   0.607   0.647   0.660   0.687   0.711   0.740   0.769   0.737   0.656   0.666   0.639   0.591   0.593   0.591   0.609   0.582   0.615   0.592   0.607   0.609   0.589   0.613   0.614   0.617   0.650   0.704   0.685   0.673   0.712   0.715   0.714   0.728   0.715   0.695   0.670   0.714   0.750   0.756   0.680   0.642   0.697   0.725   0.769   0.762   0.781   0.704   0.667   0.693   0.676   0.743   0.734   0.722   0.671   0.685   0.694   0.707   0.694   0.721   0.734   0.750   0.778   0.761   0.786   0.714   0.690   0.642   0.633   0.667   0.660   0.691   0.671   0.651   0.659   0.608   0.621   0.700   0.737   0.738   0.753   0.689   0.690   0.660   0.664   0.678   0.650   0.674   0.594   0.619   0.639   0.645   0.625   0.644   0.686   0.689   0.626   0.678   0.653   0.688   0.683   0.649   0.749   0.796   0.827   0.824   0.879   0.832   0.892   0.805   0.758   0.722   0.725   0.758   0.791   0.814   0.788   0.764   0.798   0.750   0.695   0.768   0.738   0.753   0.738   0.751   0.812   0.829   0.855   0.871   0.874   0.923   0.888   0.899   0.866   0.866   0.836   0.807   0.824   0.844   0.759   0.743   0.754   0.752
   224.20    0.733   0.799   0.728   0.706   0.658   0.674   0.704   0.700   0.777   0.740   0.727   0.737   0.784   0.753   0.703   0.718   0.678   0.710   0.738   0.715   0.725   0.794   0.762   0.705   0.711   0.710   0.655   0.692   0.661   0.630   0.641   0.610   0.588   0.560   0.582   0.631   0.668   0.676   0.707   0.731   0.711   0.728   0.720   0.696   0.701   0.742   0.690   0.683   0.700   0.656   0.622   0.686   0.671   0.694   0.692   0.689   0.710   0.711   0.689   0.649   0.648   0.641   0.614   0.605   0.612   0.655   0.597   0.572   0.620   0.629   0.620   0.626   0.604   0.633   0.651   0.662   0.710   0.707   0.652   0.688   0.739   0.716   0.733   0.663   0.621   0.647   0.669   0.769   0.724   0.665   0.719   0.719   0.714   0.732   0.713   0.717   0.723   0.713   0.664   0.692   0.744   0.727   0.736   0.686   0.648   0.679   0.689   0.678   0.691   0.711   0.685   0.693   0.740   0.766   0.752   0.700   0.654   0.669   0.663   0.636   0.686   0.630   0.628   0.650   0.680   0.664   0.695   0.701   0.727   0.742   0.753   0.733   0.693   0.701   0.648   0.620   0.634   0.584   0.597   0.615   0.634   0.656   0.646   0.656   0.684   0.660   0.700   0.686   0.688   0.690   0.697   0.751   0.817   0.826   0.825   0.866   0.847   0.835   0.772   0.794   0.748   0.736   0.742   0.756   0.750   0.772   0.803   0.830   0.793   0.754   0.771   0.760   0.763   0.752   0.779   0.806   0.792   0.811   0.852   0.859   0.916   0.830   0.881   0.857   0.854   0.821   0.771   0.787   0.817   0.781   0.774   0.737   0.758
   214.90    0.790   0.795   0.711   0.638   0.651   0.624   0.688   0.707   0.717   0.710   0.710   0.723   0.720   0.652   0.647   0.628   0.628   0.641   0.650   0.620   0.681   0.715   0.755   0.726   0.726   0.686   0.690   0.685   0.647   0.578   0.578   0.576   0.587   0.592   0.611   0.608   0.608   0.683   0.681   0.749   0.731   0.761   0.756   0.764   0.720   0.722   0.684   0.681   0.659   0.655   0.690   0.685   0.688   0.665   0.646   0.683   0.697   0.708   0.689   0.636   0.660   0.636   0.644   0.639   0.624   0.638   0.637   0.592   0.566   0.610   0.615   0.652   0.616   0.589   0.576   0.650   0.698   0.732   0.673   0.679   0.709   0.714   0.710   0.671   0.604   0.665   0.685   0.727   0.709   0.735   0.675   0.740   0.691   0.716   0.684   0.718   0.693   0.685   0.670   0.684   0.727   0.717   0.718   0.717   0.650   0.720   0.742   0.692   0.669   0.689   0.669   0.713   0.756   0.756   0.765   0.736   0.714   0.650   0.660   0.669   0.634   0.616   0.597   0.652   0.691   0.706   0.696   0.696   0.686   0.732   0.722   0.770   0.717   0.676   0.655   0.636   0.653   0.619   0.606   0.629   0.668   0.658   0.680   0.695   0.664   0.662   0.681   0.709   0.755   0.745   0.733   0.746   0.808   0.811   0.811   0.810   0.836   0.827   0.772   0.761   0.774   0.728   0.734   0.748   0.772   0.797   0.809   0.808   0.862   0.780   0.747   0.735   0.780   0.797   0.764   0.786   0.750   0.797   0.828   0.860   0.832   0.844   0.857   0.867   0.839   0.830   0.798   0.805   0.813   0.751   0.714   0.725   0.750
   205.60    0.825   0.755   0.685   0.630   0.657   0.676   0.706   0.668   0.683   0.715   0.679   0.726   0.677   0.648   0.609   0.624   0.627   0.623   0.590   0.615   0.638   0.700   0.776   0.781   0.710   0.681   0.696   0.695   0.656   0.590   0.601   0.585   0.580   0.598   0.588   0.615   0.637   0.645   0.649   0.716   0.707   0.749   0.744   0.710   0.670   0.688   0.637   0.699   0.658   0.669   0.646   0.657   0.691   0.654   0.645   0.671   0.682   0.709   0.669   0.663   0.684   0.665   0.641   0.635   0.614   0.574   0.574   0.590   0.566   0.587   0.589   0.578   0.600   0.581   0.558   0.583   0.636   0.677   0.696   0.693   0.689   0.725   0.667   0.658   0.648   0.655   0.671   0.692   0.671   0.671   0.687   0.689   0.715   0.734   0.743   0.693   0.665   0.682   0.690   0.656   0.706   0.706   0.697   0.690   0.690   0.702   0.695   0.728   0.679   0.727   0.697   0.710   0.693   0.725   0.742   0.754   0.759   0.693   0.637   0.663   0.703   0.670   0.641   0.600   0.681   0.696   0.726   0.655   0.710   0.730   0.721   0.725   0.713   0.675   0.701   0.679   0.679   0.635   0.667   0.650   0.697   0.683   0.649   0.708   0.685   0.694   0.677   0.734   0.763   0.720   0.771   0.752   0.785   0.839   0.858   0.830   0.814   0.823   0.767   0.776   0.770   0.756   0.718   0.724   0.745   0.793   0.809   0.797   0.867   0.798   0.791   0.773   0.807   0.822   0.862   0.813   0.796   0.777   0.810   0.796   0.796   0.822   0.834   0.793   0.758   0.777   0.818   0.798   0.825   0.749   0.736   0.744   0.730
   196.30    0.796   0.769   0.730   0.703   0.698   0.686   0.699   0.697   0.740   0.731   0.682   0.721   0.662   0.633   0.651   0.653   0.655   0.613   0.656   0.675   0.662   0.709   0.740   0.776   0.745   0.691   0.720   0.726   0.692   0.635   0.617   0.642   0.631   0.561   0.538   0.593   0.650   0.647   0.644   0.672   0.694   0.697   0.728   0.706   0.679   0.676   0.639   0.695   0.659   0.614   0.623   0.648   0.647   0.620   0.633   0.672   0.666   0.709   0.667   0.722   0.718   0.650   0.637   0.629   0.618   0.607   0.580   0.612   0.564   0.588   0.551   0.567   0.571   0.596   0.582   0.598   0.618   0.614   0.617   0.638   0.650   0.669   0.670   0.699   0.690   0.652   0.678   0.694   0.659   0.664   0.633   0.665   0.687   0.692   0.701   0.676   0.695   0.675   0.723   0.689   0.678   0.701   0.702   0.689   0.688   0.725   0.714   0.686   0.641   0.640   0.672   0.699   0.714   0.745   0.738   0.715   0.732   0.675   0.667   0.664   0.690   0.682   0.642   0.651   0.670   0.682   0.684   0.661   0.693   0.705   0.689   0.724   0.748   0.693   0.723   0.722   0.693   0.688   0.631   0.649   0.652   0.637   0.681   0.661   0.712   0.723   0.723   0.770   0.803   0.766   0.764   0.772   0.819   0.855   0.916   0.886   0.868   0.801   0.770   0.796   0.790   0.743   0.760   0.713   0.748   0.744   0.822   0.819   0.821   0.802   0.792   0.831   0.818   0.880   0.914   0.846   0.780   0.761   0.748   0.775   0.758   0.790   0.753   0.719   0.708   0.765   0.773   0.800   0.793   0.748   0.709   0.740   0.693
   187.00    0.774   0.780   0.748   0.712   0.704   0.713   0.656   0.698   0.686   0.678   0.693   0.692   0.637   0.656   0.655   0.656   0.649   0.651   0.656   0.653   0.661   0.685   0.772   0.756   0.719   0.707   0.745   0.746   0.708   0.656   0.662   0.639   0.599   0.606   0.606   0.659   0.642   0.657   0.637   0.646   0.673   0.724   0.707   0.714   0.668   0.683   0.677   0.613   0.631   0.611   0.636   0.615   0.628   0.627   0.622   0.663   0.641   0.669   0.659   0.712   0.699   0.699   0.614   0.603   0.579   0.559   0.575   0.593   0.590   0.586   0.547   0.567   0.613   0.595   0.623   0.629   0.620   0.571   0.585   0.590   0.643   0.611   0.648   0.642   0.636   0.672   0.689   0.680   0.619   0.666   0.594   0.640   0.686   0.644   0.683   0.746   0.734   0.752   0.723   0.711   0.722   0.684   0.678   0.684   0.710   0.699   0.695   0.662   0.696   0.658   0.694   0.713   0.717   0.720   0.734   0.756   0.723   0.692   0.682   0.672   0.689   0.682   0.675   0.692   0.669   0.660   0.670   0.719   0.768   0.739   0.719   0.746   0.761   0.770   0.734   0.699   0.680   0.675   0.680   0.638   0.666   0.689   0.670   0.687   0.692   0.678   0.799   0.804   0.852   0.831   0.812   0.802   0.843   0.826   0.884   0.831   0.826   0.799   0.745   0.776   0.784   0.724   0.769   0.804   0.755   0.750   0.816   0.802   0.818   0.806   0.790   0.814   0.848   0.898   0.878   0.868   0.780   0.740   0.773   0.785   0.785   0.780   0.739   0.722   0.730   0.763   0.712   0.745   0.738   0.684   0.685   0.693   0.714
   177.70    0.747   0.739   0.727   0.708   0.696   0.697   0.680   0.711   0.708   0.711   0.649   0.631   0.653   0.659   0.647   0.629   0.651   0.634   0.657   0.696   0.711   0.731   0.782   0.817   0.757   0.789   0.724   0.708   0.725   0.678   0.678   0.640   0.644   0.658   0.676   0.619   0.635   0.605   0.592   0.621   0.669   0.692   0.704   0.685   0.681   0.684   0.654   0.615   0.614   0.616   0.608   0.600   0.626   0.608   0.637   0.651   0.664   0.620   0.651   0.692   0.682   0.680   0.654   0.588   0.584   0.551   0.559   0.601   0.621   0.658   0.587   0.602   0.638   0.632   0.622   0.644   0.637   0.606   0.604   0.624   0.617   0.631   0.621   0.639   0.662   0.637   0.688   0.670   0.662   0.633   0.613   0.670   0.669   0.701   0.734   0.787   0.759   0.745   0.737   0.732   0.651   0.685   0.697   0.686   0.691   0.735   0.699   0.693   0.646   0.635   0.687   0.697   0.701   0.674   0.738   0.707   0.701   0.754   0.729   0.698   0.711   0.754   0.698   0.700   0.689   0.636   0.645   0.695   0.763   0.750   0.731   0.745   0.788   0.748   0.726   0.732   0.762   0.732   0.672   0.689   0.706   0.668   0.701   0.684   0.680   0.693   0.750   0.826   0.791   0.807   0.854   0.869   0.850   0.870   0.847   0.775   0.828   0.726   0.707   0.734   0.779   0.767   0.813   0.789   0.815   0.809   0.821   0.799   0.843   0.818   0.832   0.817   0.808   0.857   0.833   0.783   0.790   0.715   0.781   0.780   0.772   0.757   0.705   0.683   0.688   0.690   0.747   0.723   0.716   0.703   0.655   0.662   0.696
   168.40    0.703   0.730   0.719   0.769   0.765   0.722   0.731   0.701   0.709   0.688   0.643   0.675   0.652   0.629   0.645   0.674   0.668   0.701   0.661   0.705   0.739   0.781   0.789   0.818   0.765   0.744   0.702   0.660   0.693   0.700   0.671   0.635   0.665   0.665   0.629   0.645   0.620   0.590   0.594   0.613   0.628   0.660   0.701   0.654   0.670   0.671   0.642   0.634   0.610   0.641   0.648   0.581   0.589   0.611   0.648   0.635   0.633   0.638   0.651   0.685   0.684   0.662   0.638   0.618   0.602   0.562   0.564   0.619   0.638   0.650   0.615   0.641   0.637   0.608   0.638   0.629   0.624   0.622   0.621   0.606   0.592   0.589   0.639   0.665   0.641   0.630   0.636   0.669   0.684   0.716   0.681   0.711   0.709   0.742   0.747   0.715   0.771   0.774   0.778   0.757   0.704   0.715   0.721   0.706   0.727   0.704   0.718   0.716   0.670   0.698   0.693   0.675   0.684   0.697   0.732   0.683   0.727   0.734   0.753   0.719   0.728   0.797   0.731   0.727   0.726   0.682   0.656   0.702   0.672   0.697   0.697   0.731   0.718   0.740   0.732   0.699   0.733   0.706   0.705   0.716   0.682   0.691   0.709   0.671   0.691   0.750   0.780   0.792   0.776   0.782   0.834   0.821   0.802   0.827   0.831   0.759   0.798   0.752   0.758   0.769   0.778   0.804   0.800   0.812   0.796   0.810   0.835   0.797   0.818   0.801   0.809   0.772   0.862   0.838   0.760   0.769   0.777   0.759   0.775   0.756   0.731   0.733   0.670   0.688   0.689   0.697   0.697   0.721   0.699   0.646   0.676   0.675   0.694
   159.10    0.703   0.706   0.685   0.749   0.727   0.692   0.723   0.671   0.690   0.611   0.651   0.686   0.652   0.674   0.615   0.650   0.597   0.625   0.675   0.700   0.790   0.789   0.713   0.745   0.782   0.763   0.695   0.677   0.680   0.694   0.689   0.666   0.609   0.667   0.658   0.625   0.604   0.630   0.632   0.620   0.629   0.644   0.666   0.664   0.684   0.686   0.656   0.601   0.647   0.642   0.641   0.659   0.602   0.633   0.632   0.640   0.620   0.694   0.691   0.673   0.636   0.709   0.650   0.627   0.606   0.618   0.600   0.627   0.633   0.664   0.619   0.605   0.612   0.643   0.604   0.635   0.629   0.597   0.595   0.611   0.612   0.557   0.612   0.677   0.641   0.668   0.642   0.691   0.667   0.687   0.728   0.721   0.700   0.707   0.741   0.739   0.790   0.780   0.786   0.718   0.694   0.688   0.685   0.728   0.745   0.705   0.727   0.745   0.723   0.702   0.678   0.667   0.721   0.724   0.699   0.714   0.718   0.700   0.710   0.700   0.755   0.772   0.756   0.737   0.693   0.721   0.704   0.687   0.678   0.691   0.769   0.783   0.742   0.760   0.718   0.694   0.728   0.712   0.742   0.742   0.750   0.722   0.710   0.649   0.726   0.774   0.736   0.752   0.757   0.775   0.785   0.790   0.773   0.772   0.780   0.745   0.744   0.778   0.776   0.722   0.723   0.736   0.727   0.773   0.766   0.788   0.819   0.730   0.750   0.751   0.741   0.745   0.781   0.809   0.785   0.764   0.724   0.700   0.709   0.682   0.675   0.691   0.653   0.680   0.681   0.720   0.712   0.696   0.668   0.707   0.678   0.700   0.678
   149.80    0.689   0.698   0.633   0.701   0.685   0.662   0.682   0.647   0.642   0.621   0.639   0.686   0.627   0.682   0.648   0.607   0.601   0.600   0.596   0.687   0.735   0.781   0.739   0.766   0.769   0.749   0.688   0.681   0.712   0.696   0.666   0.668   0.608   0.641   0.658   0.661   0.665   0.657   0.643   0.590   0.626   0.689   0.693   0.719   0.691   0.679   0.648   0.661   0.641   0.634   0.653   0.627   0.667   0.659   0.616   0.649   0.648   0.702   0.697   0.711   0.690   0.655   0.687   0.687   0.677   0.660   0.592   0.592   0.560   0.605   0.619   0.673   0.673   0.667   0.609   0.640   0.644   0.590   0.635   0.646   0.612   0.621   0.624   0.650   0.688   0.704   0.705   0.691   0.631   0.710   0.728   0.692   0.715   0.711   0.709   0.733   0.766   0.774   0.742   0.715   0.678   0.661   0.679   0.721   0.735   0.761   0.749   0.728   0.691   0.665   0.678   0.666   0.668   0.678   0.707   0.691   0.655   0.667   0.724   0.729   0.765   0.725   0.760   0.744   0.739   0.740   0.731   0.691   0.685   0.710   0.729   0.741   0.795   0.746   0.727   0.690   0.776   0.769   0.729   0.757   0.764   0.745   0.707   0.657   0.693   0.747   0.769   0.726   0.757   0.733   0.762   0.732   0.717   0.757   0.746   0.746   0.771   0.763   0.761   0.710   0.720   0.714   0.698   0.746   0.780   0.782   0.782   0.791   0.723   0.737   0.699   0.754   0.770   0.781   0.742   0.729   0.705   0.716   0.697   0.667   0.689   0.642   0.659   0.634   0.630   0.712   0.703   0.737   0.686   0.693   0.722   0.694   0.719
   140.50    0.698   0.691   0.662   0.664   0.652   0.644   0.687   0.604   0.649   0.590   0.614   0.646   0.640   0.631   0.612   0.563   0.607   0.553   0.575   0.610   0.665   0.716   0.723   0.748   0.727   0.703   0.667   0.691   0.669   0.680   0.624   0.678   0.669   0.692   0.673   0.671   0.678   0.658   0.647   0.659   0.644   0.681   0.656   0.696   0.674   0.620   0.641   0.640   0.677   0.633   0.647   0.627   0.651   0.679   0.669   0.693   0.735   0.724   0.700   0.702   0.700   0.703   0.697   0.673   0.705   0.710   0.643   0.588   0.547   0.592   0.612   0.652   0.669   0.709   0.601   0.615   0.626   0.637   0.616   0.676   0.694   0.629   0.699   0.726   0.728   0.730   0.751   0.686   0.675   0.711   0.691   0.691   0.663   0.714   0.720   0.674   0.738   0.731   0.722   0.698   0.749   0.749   0.738   0.656   0.704   0.745   0.729   0.708   0.672   0.644   0.668   0.650   0.650   0.666   0.678   0.666   0.707   0.702   0.706   0.728   0.689   0.745   0.755   0.742   0.707   0.750   0.723   0.692   0.707   0.683   0.712   0.738   0.764   0.759   0.801   0.818   0.832   0.800   0.789   0.806   0.777   0.759   0.736   0.728   0.740   0.771   0.750   0.727   0.729   0.718   0.721   0.677   0.679   0.751   0.738   0.749   0.769   0.751   0.721   0.700   0.670   0.674   0.747   0.712   0.750   0.766   0.768   0.746   0.697   0.731   0.743   0.697   0.705   0.717   0.729   0.706   0.682   0.663   0.658   0.652   0.662   0.635   0.654   0.613   0.647   0.707   0.695   0.716   0.692   0.665   0.666   0.738   0.726
   131.20    0.670   0.674   0.671   0.686   0.705   0.675   0.699   0.666   0.623   0.573   0.579   0.598   0.565   0.559   0.581   0.568   0.605   0.604   0.562   0.578   0.630   0.653   0.708   0.732   0.762   0.707   0.662   0.674   0.660   0.705   0.637   0.631   0.663   0.686   0.677   0.680   0.699   0.703   0.666   0.664   0.652   0.622   0.614   0.638   0.652   0.614   0.632   0.627   0.629   0.693   0.683   0.641   0.673   0.675   0.718   0.696   0.730   0.720   0.714   0.727   0.685   0.659   0.677   0.649   0.705   0.697   0.695   0.645   0.589   0.635   0.630   0.660   0.721   0.636   0.637   0.608   0.597   0.629   0.631   0.690   0.721   0.693   0.685   0.668   0.693   0.699   0.729   0.717   0.730   0.701   0.720   0.642   0.646   0.693   0.673   0.689   0.711   0.684   0.705   0.718   0.716   0.736   0.699   0.671   0.706   0.693   0.685   0.668   0.648   0.647   0.686   0.669   0.652   0.629   0.634   0.667   0.702   0.742   0.699   0.670   0.687   0.721   0.723   0.718   0.716   0.737   0.739   0.743   0.709   0.703   0.755   0.747   0.741   0.744   0.765   0.794   0.760   0.795   0.824   0.850   0.817   0.791   0.730   0.737   0.795   0.768   0.716   0.685   0.676   0.682   0.685   0.680   0.677   0.704   0.763   0.755   0.729   0.714   0.693   0.674   0.655   0.684   0.678   0.701   0.776   0.729   0.718   0.752   0.684   0.680   0.712   0.750   0.735   0.707   0.724   0.702   0.674   0.613   0.634   0.594   0.631   0.638   0.616   0.661   0.637   0.682   0.709   0.697   0.661   0.691   0.685   0.708   0.783
   121.90    0.681   0.682   0.710   0.741   0.717   0.656   0.671   0.667   0.584   0.566   0.541   0.569   0.604   0.543   0.534   0.554   0.612   0.607   0.607   0.604   0.615   0.640   0.663   0.730   0.745   0.718   0.759   0.727   0.743   0.714   0.736   0.670   0.635   0.659   0.689   0.704   0.681   0.675   0.686   0.695   0.667   0.657   0.656   0.634   0.647   0.661   0.659   0.699   0.696   0.674   0.652   0.679   0.683   0.696   0.732   0.736   0.713   0.680   0.695   0.724   0.699   0.666   0.614   0.652   0.655   0.698   0.660   0.611   0.611   0.612   0.638   0.648   0.683   0.706   0.669   0.656   0.632   0.624   0.646   0.699   0.685   0.692   0.687   0.659   0.652   0.660   0.704   0.689   0.721   0.753   0.710   0.671   0.679   0.679   0.654   0.665   0.653   0.684   0.669   0.698   0.728   0.731   0.730   0.671   0.649   0.696   0.668   0.665   0.673   0.647   0.648   0.660   0.620   0.610   0.638   0.659   0.684   0.703   0.665   0.653   0.683   0.684   0.694   0.676   0.679   0.709   0.697   0.712   0.729   0.742   0.780   0.765   0.713   0.723   0.825   0.817   0.787   0.806   0.821   0.792   0.748   0.744   0.756   0.762   0.763   0.744   0.701   0.674   0.699   0.674   0.672   0.671   0.640   0.700   0.715   0.691   0.686   0.657   0.676   0.695   0.694   0.712   0.680   0.701   0.702   0.705   0.688   0.685   0.642   0.643   0.694   0.744   0.746   0.747   0.749   0.717   0.678   0.605   0.585   0.568   0.614   0.593   0.630   0.626   0.634   0.658   0.657   0.701   0.703   0.684   0.718   0.751   0.792
   112.60    0.700   0.703   0.751   0.760   0.732   0.720   0.690   0.655   0.585   0.520   0.520   0.571   0.578   0.585   0.516   0.579   0.604   0.616   0.619   0.652   0.622   0.637   0.712   0.729   0.725   0.717   0.755   0.745   0.780   0.768   0.737   0.703   0.664   0.637   0.701   0.687   0.697   0.713   0.696   0.724   0.702   0.635   0.702   0.611   0.640   0.622   0.586   0.642   0.674   0.660   0.682   0.663   0.658   0.685   0.644   0.652   0.706   0.718   0.724   0.659   0.677   0.654   0.648   0.634   0.641   0.647   0.610   0.567   0.564   0.593   0.653   0.604   0.644   0.664   0.700   0.670   0.643   0.660   0.649   0.662   0.647   0.679   0.685   0.699   0.664   0.620   0.668   0.703   0.696   0.691   0.720   0.692   0.652   0.680   0.676   0.717   0.697   0.680   0.696   0.693   0.710   0.680   0.651   0.690   0.655   0.653   0.686   0.676   0.644   0.618   0.575   0.581   0.611   0.617   0.671   0.646   0.684   0.696   0.672   0.654   0.639   0.619   0.676   0.680   0.728   0.760   0.729   0.699   0.728   0.771   0.781   0.784   0.734   0.752   0.774   0.780   0.787   0.786   0.809   0.782   0.739   0.748   0.813   0.791   0.762   0.760   0.742   0.733   0.736   0.701   0.632   0.659   0.699   0.707   0.741   0.731   0.719   0.671   0.669   0.690   0.665   0.653   0.665   0.663   0.695   0.718   0.719   0.707   0.645   0.685   0.695   0.744   0.761   0.743   0.747   0.694   0.652   0.644   0.634   0.565   0.589   0.598   0.615   0.636   0.649   0.652   0.645   0.699   0.735   0.678   0.682   0.739   0.775
   103.30    0.666   0.660   0.717   0.756   0.778   0.684   0.683   0.655   0.633   0.610   0.613   0.655   0.610   0.583   0.565   0.579   0.586   0.588   0.612   0.620   0.631   0.720   0.713   0.700   0.710   0.758   0.749   0.799   0.798   0.730   0.723   0.641   0.653   0.669   0.665   0.649   0.644   0.692   0.707   0.700   0.653   0.693   0.620   0.668   0.656   0.693   0.645   0.637   0.668   0.678   0.653   0.653   0.647   0.662   0.649   0.619   0.671   0.667   0.713   0.669   0.649   0.648   0.669   0.649   0.616   0.656   0.615   0.559   0.609   0.624   0.707   0.691   0.659   0.674   0.693   0.651   0.650   0.680   0.673   0.604   0.665   0.687   0.705   0.710   0.693   0.649   0.614   0.656   0.631   0.649   0.648   0.635   0.632   0.673   0.717   0.705   0.700   0.643   0.694   0.686   0.704   0.711   0.605   0.659   0.642   0.650   0.647   0.630   0.580   0.569   0.586   0.550   0.572   0.646   0.668   0.671   0.694   0.714   0.679   0.673   0.706   0.666   0.657   0.723   0.777   0.765   0.720   0.715   0.771   0.758   0.745   0.760   0.763   0.729   0.763   0.760   0.769   0.782   0.741   0.814   0.771   0.761   0.820   0.777   0.758   0.783   0.790   0.776   0.711   0.717   0.688   0.674   0.691   0.745   0.756   0.702   0.757   0.765   0.738   0.684   0.687   0.621   0.657   0.669   0.681   0.711   0.711   0.715   0.687   0.699   0.655   0.690   0.733   0.710   0.719   0.694   0.667   0.599   0.603   0.590   0.609   0.615   0.638   0.661   0.641   0.638   0.626   0.655   0.694   0.693   0.693   0.690   0.718
    94.00    0.680   0.716   0.695   0.695   0.705   0.698   0.692   0.667   0.674   0.639   0.614   0.621   0.618   0.598   0.553   0.555   0.603   0.582   0.550   0.555   0.594   0.677   0.714   0.711   0.686   0.704   0.726   0.783   0.822   0.768   0.708   0.658   0.667   0.646   0.627   0.605   0.633   0.655   0.684   0.670   0.656   0.677   0.715   0.697   0.695   0.673   0.636   0.636   0.614   0.668   0.667   0.680   0.635   0.670   0.680   0.675   0.664   0.634   0.653   0.651   0.635   0.641   0.625   0.668   0.640   0.596   0.627   0.588   0.667   0.715   0.733   0.702   0.680   0.701   0.673   0.657   0.640   0.671   0.713   0.654   0.667   0.722   0.752   0.690   0.703   0.680   0.624   0.657   0.647   0.605   0.620   0.643   0.615   0.631   0.694   0.687   0.712   0.680   0.670   0.702   0.741   0.701   0.670   0.679   0.663   0.590   0.623   0.609   0.620   0.599   0.589   0.580   0.642   0.686   0.674   0.679   0.662   0.677   0.676   0.710   0.714   0.736   0.696   0.743   0.796   0.746   0.754   0.679   0.699   0.697   0.728   0.732   0.725   0.739   0.713   0.731   0.732   0.781   0.797   0.812   0.733   0.807   0.782   0.826   0.768   0.781   0.776   0.767   0.782   0.699   0.709   0.685   0.738   0.723   0.717   0.708   0.686   0.722   0.713   0.658   0.620   0.633   0.671   0.624   0.639   0.705   0.702   0.731   0.664   0.688   0.688   0.695   0.657   0.699   0.706   0.665   0.648   0.648   0.610   0.604   0.548   0.597   0.572   0.616   0.583   0.586   0.608   0.650   0.684   0.673   0.705   0.695   0.708
    84.70    0.674   0.695   0.685   0.712   0.738   0.740   0.711   0.662   0.633   0.669   0.653   0.602   0.607   0.553   0.553   0.577   0.570   0.572   0.605   0.618   0.678   0.697   0.721   0.751   0.730   0.754   0.723   0.772   0.796   0.785   0.695   0.691   0.663   0.678   0.666   0.625   0.635   0.609   0.673   0.677   0.648   0.667   0.666   0.700   0.654   0.623   0.635   0.685   0.694   0.653   0.711   0.700   0.699   0.674   0.698   0.705   0.630   0.630   0.619   0.609   0.614   0.582   0.615   0.643   0.669   0.633   0.613   0.616   0.654   0.692   0.731   0.708   0.756   0.664   0.619   0.616   0.619   0.690   0.706   0.684   0.652   0.683   0.704   0.672   0.675   0.691   0.687   0.667   0.615   0.573   0.572   0.631   0.598   0.662   0.675   0.699   0.716   0.707   0.688   0.716   0.714   0.715   0.632   0.656   0.633   0.636   0.602   0.619   0.637   0.664   0.615   0.631   0.655   0.662   0.636   0.610   0.628   0.625   0.655   0.675   0.703   0.753   0.713   0.735   0.816   0.789   0.751   0.713   0.660   0.727   0.693   0.692   0.688   0.741   0.719   0.728   0.743   0.726   0.777   0.775   0.766   0.802   0.757   0.807   0.765   0.822   0.777   0.763   0.721   0.709   0.693   0.705   0.771   0.791   0.761   0.738   0.696   0.722   0.734   0.644   0.600   0.651   0.642   0.622   0.689   0.701   0.655   0.677   0.699   0.694   0.687   0.693   0.683   0.651   0.663   0.655   0.668   0.681   0.661   0.613   0.638   0.614   0.608   0.625   0.629   0.639   0.627   0.647   0.660   0.667   0.656   0.677   0.672
    75.40    0.653   0.665   0.730   0.737   0.722   0.733   0.709   0.658   0.676   0.725   0.672   0.611   0.657   0.603   0.575   0.546   0.548   0.562   0.623   0.619   0.688   0.716   0.725   0.735   0.703   0.754   0.764   0.778   0.775   0.717   0.659   0.670   0.670   0.682   0.668   0.615   0.645   0.616   0.654   0.615   0.635   0.633   0.694   0.661   0.623   0.643   0.663   0.656   0.661   0.694   0.699   0.690   0.679   0.644   0.694   0.698   0.639   0.632   0.579   0.603   0.580   0.596   0.644   0.670   0.684   0.646   0.622   0.632   0.686   0.720   0.673   0.704   0.735   0.689   0.646   0.636   0.695   0.676   0.659   0.676   0.692   0.650   0.706   0.670   0.641   0.642   0.639   0.632   0.597   0.562   0.559   0.588   0.585   0.637   0.631   0.636   0.696   0.689   0.675   0.682   0.656   0.709   0.669   0.681   0.651   0.615   0.643   0.676   0.698   0.658   0.649   0.619   0.640   0.616   0.597   0.619   0.645   0.625   0.654   0.700   0.681   0.743   0.749   0.703   0.749   0.736   0.762   0.727   0.728   0.706   0.724   0.687   0.696   0.719   0.724   0.785   0.701   0.754   0.754   0.760   0.777   0.788   0.776   0.793   0.809   0.806   0.748   0.731   0.742   0.703   0.707   0.722   0.808   0.774   0.793   0.720   0.682   0.686   0.682   0.598   0.566   0.578   0.647   0.708   0.731   0.662   0.678   0.667   0.689   0.671   0.641   0.614   0.600   0.643   0.638   0.659   0.632   0.648   0.643   0.613   0.633   0.684   0.646   0.645   0.717   0.689   0.654   0.667   0.679   0.658   0.643   0.678   0.684
    66.10    0.708   0.674   0.684   0.674   0.677   0.736   0.706   0.693   0.678   0.665   0.692   0.687   0.620   0.571   0.585   0.603   0.606   0.598   0.614   0.705   0.714   0.721   0.732   0.746   0.744   0.740   0.756   0.770   0.775   0.704   0.629   0.686   0.683   0.665   0.632   0.631   0.608   0.617   0.604   0.624   0.642   0.672   0.699   0.689   0.667   0.699   0.639   0.703   0.660   0.676   0.687   0.673   0.683   0.689   0.700   0.650   0.682   0.609   0.626   0.617   0.602   0.601   0.692   0.653   0.709   0.684   0.648   0.643   0.672   0.703   0.705   0.673   0.719   0.670   0.661   0.662   0.688   0.674   0.675   0.687   0.684   0.703   0.697   0.650   0.657   0.637   0.633   0.619   0.622   0.578   0.596   0.624   0.619   0.664   0.672   0.656   0.656   0.674   0.684   0.662   0.670   0.651   0.653   0.641   0.648   0.625   0.685   0.689   0.711   0.708   0.674   0.601   0.587   0.583   0.606   0.600   0.640   0.650   0.736   0.715   0.726   0.747   0.750   0.731   0.731   0.751   0.727   0.695   0.690   0.723   0.747   0.735   0.726   0.735   0.742   0.751   0.730   0.729   0.777   0.781   0.794   0.811   0.814   0.801   0.760   0.773   0.762   0.754   0.713   0.720   0.723   0.704   0.795   0.767   0.761   0.733   0.662   0.645   0.619   0.585   0.546   0.614   0.627   0.707   0.701   0.677   0.673   0.675   0.697   0.643   0.615   0.597   0.615   0.701   0.684   0.709   0.666   0.654   0.695   0.644   0.686   0.712   0.683   0.652   0.685   0.665   0.637   0.633   0.640   0.648   0.655   0.588   0.650
    56.80    0.696   0.700   0.664   0.692   0.756   0.747   0.744   0.754   0.740   0.704   0.723   0.694   0.674   0.671   0.643   0.654   0.622   0.643   0.691   0.746   0.749   0.786   0.764   0.795   0.807   0.800   0.757   0.740   0.720   0.731   0.663   0.659   0.632   0.617   0.626   0.600   0.585   0.621   0.581   0.680   0.652   0.635   0.699   0.729   0.644   0.671   0.665   0.714   0.676   0.694   0.684   0.654   0.623   0.643   0.703   0.684   0.669   0.611   0.620   0.581   0.619   0.647   0.665   0.682   0.732   0.682   0.698   0.704   0.660   0.664   0.737   0.776   0.731   0.680   0.702   0.683   0.712   0.752   0.737   0.725   0.730   0.695   0.713   0.682   0.628   0.675   0.608   0.657   0.645   0.617   0.610   0.613   0.608   0.622   0.654   0.645   0.677   0.642   0.685   0.707   0.710   0.679   0.625   0.650   0.637   0.633   0.677   0.649   0.719   0.704   0.658   0.639   0.634   0.602   0.603   0.630   0.636   0.659   0.755   0.710   0.735   0.788   0.790   0.771   0.735   0.714   0.709   0.696   0.711   0.726   0.764   0.731   0.683   0.732   0.719   0.705   0.758   0.718   0.769   0.725   0.720   0.741   0.747   0.768   0.755   0.779   0.764   0.744   0.738   0.716   0.721   0.712   0.716   0.751   0.719   0.739   0.691   0.624   0.604   0.626   0.618   0.620   0.622   0.658   0.747   0.733   0.684   0.677   0.700   0.634   0.615   0.607   0.668   0.677   0.723   0.732   0.662   0.687   0.678   0.660   0.678   0.725   0.725   0.716   0.700   0.689   0.638   0.678   0.671   0.706   0.675   0.659   0.619
    47.50    0.708   0.688   0.644   0.675   0.743   0.809   0.777   0.774   0.722   0.725   0.718   0.688   0.677   0.678   0.717   0.659   0.670   0.720   0.688   0.713   0.747   0.767   0.800   0.755   0.780   0.778   0.758   0.721   0.693   0.717   0.701   0.695   0.698   0.615   0.592   0.600   0.566   0.591   0.611   0.642   0.645   0.639   0.647   0.705   0.666   0.697   0.730   0.706   0.706   0.701   0.676   0.634   0.598   0.595   0.612   0.666   0.658   0.663   0.625   0.585   0.584   0.623   0.679   0.703   0.724   0.735   0.717   0.688   0.666   0.730   0.701   0.735   0.698   0.661   0.665   0.722   0.697   0.762   0.746   0.707   0.730   0.697   0.697   0.638   0.643   0.628   0.596   0.632   0.680   0.674   0.632   0.598   0.629   0.679   0.631   0.607   0.626   0.605   0.640   0.676   0.732   0.691   0.665   0.649   0.660   0.664   0.652   0.662   0.695   0.730   0.656   0.688   0.631   0.626   0.636   0.623   0.627   0.694   0.706   0.726   0.739   0.787   0.799   0.811   0.729   0.686   0.688   0.664   0.678   0.704   0.727   0.717   0.671   0.716   0.704   0.646   0.706   0.701   0.725   0.709   0.735   0.730   0.754   0.758   0.795   0.781   0.712   0.743   0.766   0.758   0.726   0.721   0.721   0.761   0.736   0.736   0.688   0.673   0.681   0.664   0.656   0.643   0.631   0.624   0.705   0.684   0.660   0.695   0.673   0.630   0.618   0.627   0.672   0.686   0.740   0.682   0.710   0.680   0.688   0.689   0.674   0.695   0.714   0.677   0.683   0.681   0.662   0.676   0.690   0.675   0.679   0.681   0.704
    38.20    0.697   0.702   0.711   0.726   0.759   0.771   0.751   0.744   0.774   0.731   0.693   0.711   0.712   0.703   0.744   0.687   0.705   0.757   0.755   0.746   0.760   0.753   0.715   0.730   0.764   0.801   0.765   0.745   0.721   0.712   0.714   0.716   0.721   0.668   0.619   0.597   0.592   0.577   0.576   0.583   0.636   0.684   0.651   0.696   0.753   0.697   0.691   0.721   0.721   0.743   0.670   0.618   0.565   0.569   0.580   0.627   0.658   0.681   0.646   0.608   0.614   0.621   0.622   0.679   0.693   0.712   0.699   0.679   0.714   0.765   0.703   0.701   0.659   0.645   0.632   0.643   0.714   0.758   0.725   0.687   0.716   0.698   0.659   0.678   0.609   0.637   0.625   0.642   0.644   0.654   0.616   0.613   0.603   0.676   0.662   0.627   0.581   0.591   0.668   0.676   0.686   0.678   0.673   0.639   0.613   0.639   0.671   0.635   0.684   0.692   0.683   0.685   0.667   0.638   0.617   0.633   0.646   0.674   0.698   0.695   0.728   0.756   0.747   0.780   0.757   0.700   0.672   0.655   0.649   0.667   0.682   0.684   0.678   0.650   0.672   0.633   0.631   0.683   0.689   0.669   0.720   0.730   0.754   0.768   0.730   0.724   0.683   0.712   0.689   0.696   0.681   0.692   0.736   0.716   0.730   0.679   0.646   0.678   0.690   0.657   0.639   0.617   0.608   0.621   0.641   0.645   0.652   0.650   0.634   0.670   0.663   0.634   0.660   0.641   0.661   0.664   0.631   0.663   0.659   0.678   0.611   0.656   0.668   0.693   0.685   0.638   0.645   0.689   0.662   0.647   0.654   0.671   0.661
    28.90    0.694   0.723   0.720   0.711   0.755   0.755   0.733   0.728   0.745   0.716   0.731   0.716   0.672   0.739   0.743   0.731   0.706   0.727   0.715   0.691   0.721   0.725   0.704   0.683   0.716   0.744   0.751   0.800   0.764   0.741   0.731   0.736   0.742   0.648   0.626   0.616   0.606   0.568   0.606   0.619   0.616   0.630   0.694   0.699   0.702   0.681   0.752   0.709   0.736   0.727   0.703   0.642   0.609   0.563   0.615   0.674   0.679   0.671   0.664   0.640   0.621   0.608   0.598   0.623   0.663   0.648   0.699   0.731   0.719   0.773   0.774   0.710   0.705   0.654   0.662   0.615   0.712   0.734   0.714   0.703   0.696   0.673   0.632   0.698   0.660   0.648   0.647   0.627   0.644   0.652   0.626   0.661   0.647   0.685   0.657   0.667   0.618   0.628   0.682   0.686   0.661   0.684   0.703   0.662   0.622   0.647   0.612   0.647   0.678   0.679   0.660   0.708   0.698   0.642   0.613   0.687   0.637   0.628   0.643   0.700   0.697   0.733   0.764   0.815   0.770   0.757   0.637   0.639   0.652   0.682   0.645   0.642   0.621   0.606   0.598   0.647   0.622   0.643   0.674   0.695   0.715   0.753   0.731   0.765   0.703   0.726   0.696   0.716   0.669   0.667   0.684   0.745   0.683   0.677   0.690   0.669   0.594   0.608   0.662   0.681   0.648   0.607   0.598   0.607   0.670   0.607   0.632   0.657   0.650   0.633   0.641   0.600   0.612   0.676   0.618   0.626   0.607   0.610   0.603   0.652   0.621   0.643   0.664   0.698   0.660   0.617   0.573   0.629   0.659   0.629   0.672   0.670   0.682
    19.60    0.699   0.720   0.778   0.750   0.731   0.732   0.719   0.691   0.683   0.731   0.764   0.751   0.689   0.736   0.743   0.693   0.682   0.686   0.692   0.654   0.652   0.673   0.671   0.671   0.723   0.770   0.747   0.718   0.743   0.742   0.721   0.722   0.666   0.665   0.630   0.624   0.582   0.590   0.612   0.574   0.614   0.637   0.681   0.679   0.723   0.703   0.755   0.766   0.765   0.729   0.675   0.674   0.632   0.653   0.609   0.663   0.630   0.674   0.651   0.661   0.615   0.608   0.615   0.616   0.635   0.658   0.728   0.759   0.748   0.755   0.747   0.712   0.658   0.654   0.649   0.630   0.667   0.665   0.678   0.665   0.694   0.699   0.653   0.647   0.632   0.620   0.619   0.606   0.643   0.646   0.633   0.687   0.703   0.668   0.635   0.652   0.617   0.606   0.703   0.680   0.715   0.711   0.704   0.688   0.650   0.669   0.643   0.561   0.628   0.708   0.696   0.758   0.756   0.732   0.701   0.683   0.670   0.673   0.665   0.689   0.688   0.717   0.742   0.785   0.758   0.742   0.679   0.620   0.648   0.642   0.671   0.607   0.597   0.566   0.573   0.603   0.640   0.685   0.676   0.702   0.719   0.764   0.708   0.738   0.738   0.716   0.721   0.692   0.680   0.674   0.768   0.777   0.745   0.692   0.707   0.682   0.619   0.599   0.633   0.598   0.644   0.603   0.618   0.584   0.649   0.607   0.635   0.630   0.658   0.636   0.626   0.612   0.635   0.669   0.607   0.605   0.633   0.634   0.598   0.647   0.630   0.647   0.666   0.680   0.670   0.646   0.679   0.653   0.613   0.632   0.641   0.679   0.663
    10.30    0.706   0.664   0.718   0.709   0.690   0.695   0.729   0.701   0.734   0.732   0.705   0.662   0.657   0.739   0.787   0.751   0.692   0.724   0.680   0.656   0.647   0.615   0.655   0.690   0.694   0.728   0.703   0.693   0.709   0.731   0.692   0.678   0.711   0.660   0.638   0.629   0.645   0.639   0.651   0.604   0.610   0.665   0.656   0.661   0.695   0.683   0.707   0.700   0.711   0.707   0.705   0.711   0.651   0.639   0.693   0.648   0.682   0.678   0.671   0.680   0.584   0.608   0.616   0.597   0.627   0.682   0.735   0.764   0.760   0.721   0.719   0.692   0.711   0.679   0.677   0.660   0.679   0.642   0.651   0.667   0.708   0.650   0.600   0.617   0.612   0.589   0.628   0.646   0.633   0.612   0.633   0.683   0.700   0.674   0.644   0.639   0.645   0.633   0.733   0.685   0.702   0.661   0.704   0.677   0.598   0.620   0.624   0.615   0.646   0.683   0.741   0.755   0.740   0.750   0.723   0.699   0.686   0.678   0.687   0.641   0.693   0.695   0.708   0.754   0.773   0.701   0.714   0.665   0.616   0.628   0.614   0.629   0.618   0.643   0.596   0.596   0.655   0.675   0.643   0.644   0.704   0.702   0.742   0.711   0.703   0.734   0.707   0.667   0.702   0.704   0.792   0.735   0.801   0.735   0.766   0.715   0.629   0.588   0.597   0.590   0.617   0.643   0.614   0.669   0.664   0.641   0.667   0.676   0.659   0.676   0.642   0.651   0.700   0.647   0.653   0.613   0.610   0.605   0.609   0.615   0.653   0.636   0.686   0.703   0.698   0.643   0.683   0.676   0.650   0.636   0.670   0.672   0.678
     1.00    0.716   0.691   0.700   0.693   0.693   0.698   0.711   0.738   0.734   0.685   0.697   0.706   0.687   0.709   0.750   0.743   0.763   0.761   0.669   0.634   0.651   0.623   0.654   0.663   0.714   0.683   0.707   0.679   0.688   0.720   0.679   0.717   0.722   0.645   0.645   0.637   0.681   0.673   0.673   0.653   0.629   0.642   0.682   0.636   0.624   0.625   0.708   0.698   0.685   0.681   0.654   0.653   0.632   0.659   0.677   0.680   0.680   0.644   0.656   0.650   0.590   0.613   0.653   0.635   0.674   0.687   0.702   0.727   0.719   0.724   0.667   0.678   0.699   0.691   0.665   0.642   0.636   0.626   0.618   0.647   0.663   0.632   0.616   0.603   0.600   0.559   0.595   0.636   0.652   0.653   0.640   0.688   0.699   0.720   0.656   0.629   0.664   0.633   0.673   0.692   0.628   0.641   0.656   0.649   0.617   0.559   0.599   0.617   0.655   0.647   0.711   0.763   0.800   0.737   0.734   0.666   0.675   0.644   0.656   0.597   0.638   0.685   0.654   0.702   0.729   0.682   0.710   0.667   0.639   0.603   0.646   0.621   0.647   0.637   0.597   0.588   0.616   0.671   0.646   0.672   0.634   0.672   0.709   0.748   0.706   0.745   0.724   0.734   0.722   0.727   0.753   0.804   0.801   0.751   0.735   0.707   0.629   0.604   0.612   0.588   0.624   0.632   0.642   0.652   0.679   0.674   0.670   0.658   0.659   0.683   0.662   0.645   0.691   0.698   0.671   0.684   0.632   0.596   0.586   0.600   0.625   0.673   0.690   0.685   0.665   0.612   0.636   0.637   0.657   0.662   0.627   0.685   0.700

   Height   Standard deviation at grid points for the v component:
   354.40    0.601   0.632   0.656   0.621   0.592   0.574   0.564   0.592   0.587   0.566   0.574   0.583   0.622   0.631   0.648   0.679   0.655   0.632   0.613   0.654   0.631   0.608   0.616   0.621   0.607   0.603   0.619   0.565   0.567   0.571   0.535   0.528   0.546   0.530   0.574   0.585   0.609   0.642   0.611   0.611   0.600   0.596   0.632   0.594   0.569   0.580   0.584   0.568   0.577   0.586   0.601   0.572   0.574   0.584   0.579   0.593   0.572   0.575   0.582   0.597   0.588   0.586   0.593   0.609   0.548   0.549   0.579   0.582   0.592   0.566   0.584   0.570   0.565   0.543   0.521   0.533   0.535   0.565   0.549   0.521   0.540   0.554   0.600   0.606   0.601   0.613   0.611   0.582   0.576   0.561   0.523   0.537   0.540   0.523   0.536   0.568   0.561   0.548   0.549   0.508   0.518   0.551   0.547   0.573   0.584   0.582   0.546   0.530   0.540   0.534   0.543   0.550   0.531   0.540   0.547   0.531   0.531   0.556   0.547   0.559   0.579   0.586   0.576   0.541   0.533   0.567   0.556   0.537   0.561   0.559   0.577   0.585   0.593   0.629   0.620   0.633   0.606   0.607   0.572   0.618   0.616   0.595   0.620   0.606   0.595   0.583   0.582   0.564   0.563   0.562   0.588   0.541   0.533   0.559   0.551   0.584   0.595   0.608   0.578   0.561   0.570   0.595   0.600   0.602   0.600   0.589   0.604   0.586   0.624   0.593   0.615   0.587   0.573   0.566   0.602   0.636   0.637   0.612   0.616   0.606   0.609   0.598   0.593   0.600   0.588   0.594   0.604   0.575   0.571   0.574   0.557   0.555   0.548
   345.10    0.642   0.660   0.660   0.629   0.592   0.558   0.583   0.584   0.604   0.585   0.591   0.614   0.614   0.635   0.658   0.665   0.647   0.637   0.609   0.617   0.637   0.620   0.612   0.597   0.600   0.593   0.571   0.559   0.554   0.542   0.548   0.518   0.547   0.558   0.585   0.608   0.612   0.622   0.627   0.567   0.587   0.624   0.647   0.612   0.592   0.574   0.561   0.580   0.568   0.578   0.566   0.535   0.518   0.548   0.563   0.598   0.566   0.584   0.581   0.596   0.586   0.582   0.576   0.568   0.566   0.553   0.556   0.572   0.565   0.593   0.564   0.574   0.545   0.532   0.502   0.528   0.519   0.545   0.562   0.550   0.583   0.582   0.602   0.628   0.626   0.603   0.612   0.539   0.539   0.527   0.537   0.561   0.564   0.541   0.532   0.556   0.573   0.547   0.522   0.540   0.522   0.558   0.582   0.596   0.611   0.617   0.567   0.592   0.610   0.536   0.552   0.550   0.522   0.550   0.539   0.512   0.532   0.535   0.542   0.544   0.571   0.562   0.576   0.570   0.547   0.549   0.563   0.548   0.565   0.576   0.562   0.597   0.581   0.605   0.631   0.588   0.583   0.570   0.601   0.636   0.664   0.664   0.665   0.629   0.615   0.580   0.563   0.573   0.540   0.539   0.545   0.524   0.536   0.556   0.556   0.578   0.603   0.631   0.640   0.610   0.606   0.567   0.555   0.567   0.574   0.571   0.605   0.599   0.580   0.578   0.577   0.596   0.586   0.551   0.570   0.581   0.605   0.611   0.639   0.592   0.594   0.569   0.541   0.572   0.592   0.613   0.605   0.592   0.594   0.585   0.591   0.547   0.559
   335.80    0.643   0.668   0.667   0.681   0.634   0.620   0.596   0.609   0.615   0.605   0.615   0.611   0.645   0.677   0.673   0.687   0.639   0.594   0.573   0.588   0.605   0.598   0.604   0.608   0.604   0.574   0.566   0.531   0.528   0.532   0.563   0.541   0.574   0.577   0.584   0.606   0.599   0.604   0.603   0.584   0.581   0.606   0.619   0.596   0.565   0.548   0.569   0.582   0.552   0.564   0.554   0.537   0.512   0.512   0.528   0.541   0.576   0.578   0.559   0.591   0.608   0.563   0.560   0.541   0.557   0.547   0.547   0.544   0.556   0.560   0.556   0.572   0.540   0.509   0.516   0.530   0.529   0.557   0.545   0.532   0.580   0.639   0.621   0.599   0.595   0.617   0.605   0.594   0.545   0.547   0.532   0.575   0.562   0.575   0.569   0.578   0.575   0.575   0.570   0.539   0.514   0.539   0.575   0.590   0.604   0.567   0.572   0.614   0.556   0.561   0.531   0.532   0.502   0.515   0.515   0.561   0.545   0.553   0.531   0.540   0.505   0.549   0.569   0.576   0.540   0.513   0.518   0.534   0.558   0.570   0.569   0.596   0.595   0.593   0.595   0.592   0.572   0.587   0.626   0.649   0.663   0.677   0.663   0.625   0.596   0.608   0.583   0.567   0.549   0.544   0.544   0.550   0.532   0.549   0.570   0.591   0.595   0.619   0.644   0.622   0.618   0.569   0.565   0.566   0.578   0.575   0.557   0.543   0.560   0.561   0.554   0.556   0.562   0.569   0.588   0.606   0.631   0.605   0.631   0.600   0.605   0.582   0.561   0.547   0.591   0.588   0.585   0.632   0.609   0.586   0.613   0.575   0.562
   326.50    0.618   0.661   0.679   0.687   0.640   0.601   0.584   0.605   0.639   0.623   0.610   0.634   0.644   0.661   0.684   0.630   0.626   0.610   0.589   0.569   0.607   0.579   0.569   0.606   0.597   0.598   0.572   0.540   0.534   0.560   0.564   0.560   0.578   0.584   0.577   0.598   0.608   0.590   0.612   0.583   0.598   0.628   0.595   0.586   0.566   0.562   0.583   0.595   0.597   0.557   0.535   0.515   0.501   0.506   0.534   0.542   0.547   0.550   0.538   0.590   0.605   0.563   0.591   0.552   0.568   0.587   0.570   0.567   0.569   0.546   0.548   0.575   0.574   0.522   0.543   0.565   0.562   0.602   0.587   0.565   0.616   0.657   0.638   0.607   0.570   0.580   0.607   0.564   0.566   0.559   0.573   0.581   0.552   0.542   0.539   0.550   0.557   0.565   0.549   0.558   0.543   0.526   0.558   0.573   0.565   0.570   0.565   0.579   0.553   0.557   0.541   0.543   0.532   0.510   0.512   0.516   0.534   0.539   0.544   0.538   0.507   0.543   0.542   0.563   0.511   0.502   0.512   0.551   0.537   0.553   0.554   0.576   0.562   0.596   0.578   0.590   0.568   0.586   0.607   0.639   0.651   0.688   0.667   0.640   0.607   0.607   0.576   0.573   0.565   0.554   0.558   0.563   0.544   0.568   0.567   0.579   0.558   0.630   0.615   0.619   0.633   0.578   0.572   0.595   0.589   0.574   0.557   0.559   0.565   0.549   0.518   0.554   0.558   0.600   0.599   0.602   0.623   0.584   0.584   0.586   0.612   0.605   0.559   0.590   0.599   0.588   0.602   0.605   0.622   0.650   0.633   0.600   0.567
[...]
   103.30    0.348   0.351   0.356   0.346   0.360   0.360   0.358   0.349   0.342   0.354   0.343   0.350   0.356   0.357   0.347   0.350   0.344   0.340   0.338   0.333   0.345   0.356   0.365   0.357   0.346   0.349   0.356   0.350   0.340   0.342   0.343   0.353   0.348   0.337   0.337   0.344   0.352   0.355   0.359   0.358   0.353   0.356   0.360   0.353   0.356   0.362   0.354   0.357   0.351   0.361   0.359   0.343   0.335   0.343   0.362   0.369   0.369   0.372   0.365   0.358   0.359   0.345   0.355   0.352   0.355   0.359   0.373   0.372   0.361   0.362   0.350   0.348   0.344   0.344   0.349   0.350   0.347   0.354   0.349   0.343   0.359   0.359   0.347   0.355   0.364   0.364   0.371   0.369   0.372   0.373   0.362   0.362   0.368   0.366   0.367   0.369   0.360   0.361   0.356   0.343   0.349   0.348   0.363   0.353   0.364   0.367   0.372   0.389   0.387   0.382   0.379   0.368   0.364   0.355   0.350   0.358   0.348   0.340   0.348   0.354   0.350   0.345   0.357   0.358   0.372   0.350   0.357   0.341   0.335   0.337   0.340   0.355   0.363   0.353   0.348   0.344   0.347   0.346   0.359   0.356   0.359   0.350   0.348   0.353   0.346   0.347   0.355   0.350   0.351   0.355   0.353   0.361   0.370   0.363   0.370   0.361   0.359   0.364   0.380   0.385   0.375   0.376   0.363   0.362   0.359   0.360   0.347   0.342   0.355   0.350   0.357   0.351   0.359   0.350   0.350   0.363   0.357   0.361   0.353   0.350   0.339   0.349   0.347   0.345   0.348   0.358   0.371   0.354   0.353   0.356   0.347   0.350   0.360
    94.00    0.348   0.346   0.348   0.354   0.358   0.355   0.353   0.354   0.353   0.366   0.354   0.355   0.363   0.361   0.352   0.353   0.359   0.362   0.340   0.330   0.339   0.349   0.349   0.359   0.348   0.345   0.354   0.347   0.344   0.346   0.344   0.350   0.341   0.349   0.336   0.336   0.342   0.359   0.357   0.351   0.354   0.353   0.347   0.360   0.354   0.346   0.353   0.346   0.362   0.359   0.344   0.332   0.327   0.336   0.351   0.358   0.360   0.363   0.364   0.349   0.364   0.361   0.355   0.366   0.358   0.365   0.366   0.369   0.367   0.356   0.359   0.342   0.340   0.347   0.346   0.351   0.346   0.342   0.341   0.347   0.354   0.364   0.352   0.349   0.362   0.355   0.375   0.382   0.386   0.372   0.363   0.360   0.374   0.362   0.356   0.362   0.354   0.355   0.360   0.348   0.334   0.350   0.353   0.353   0.359   0.366   0.365   0.371   0.385   0.383   0.376   0.372   0.368   0.357   0.357   0.347   0.348   0.350   0.358   0.368   0.346   0.339   0.345   0.351   0.350   0.356   0.348   0.347   0.351   0.347   0.341   0.348   0.355   0.354   0.339   0.353   0.357   0.352   0.355   0.349   0.361   0.343   0.349   0.340   0.346   0.347   0.355   0.356   0.361   0.367   0.371   0.367   0.370   0.378   0.377   0.368   0.369   0.379   0.375   0.365   0.378   0.370   0.381   0.360   0.354   0.353   0.344   0.348   0.355   0.356   0.361   0.370   0.357   0.351   0.350   0.359   0.352   0.342   0.344   0.344   0.339   0.345   0.339   0.347   0.360   0.376   0.369   0.344   0.340   0.341   0.352   0.346   0.358
    84.70    0.357   0.350   0.347   0.361   0.368   0.345   0.359   0.363   0.371   0.360   0.366   0.359   0.366   0.367   0.352   0.354   0.353   0.359   0.351   0.348   0.348   0.345   0.352   0.350   0.350   0.329   0.339   0.343   0.347   0.333   0.347   0.340   0.335   0.335   0.334   0.334   0.339   0.360   0.372   0.359   0.362   0.355   0.345   0.339   0.347   0.340   0.341   0.344   0.344   0.342   0.345   0.337   0.340   0.337   0.348   0.355   0.353   0.351   0.354   0.363   0.348   0.353   0.348   0.349   0.362   0.369   0.364   0.363   0.371   0.355   0.358   0.346   0.343   0.351   0.348   0.348   0.352   0.359   0.359   0.355   0.350   0.347   0.355   0.363   0.351   0.354   0.369   0.376   0.370   0.377   0.365   0.372   0.372   0.369   0.349   0.351   0.347   0.345   0.353   0.354   0.341   0.343   0.349   0.351   0.353   0.366   0.373   0.367   0.367   0.368   0.381   0.380   0.370   0.368   0.369   0.358   0.356   0.354   0.351   0.362   0.360   0.337   0.339   0.345   0.344   0.350   0.357   0.358   0.351   0.347   0.347   0.345   0.342   0.346   0.344   0.352   0.354   0.355   0.356   0.359   0.350   0.347   0.355   0.346   0.351   0.335   0.359   0.360   0.363   0.372   0.362   0.358   0.376   0.366   0.372   0.376   0.371   0.369   0.369   0.358   0.360   0.357   0.370   0.367   0.352   0.343   0.347   0.351   0.360   0.355   0.350   0.353   0.364   0.360   0.357   0.349   0.341   0.353   0.345   0.343   0.351   0.342   0.342   0.341   0.345   0.355   0.351   0.352   0.337   0.337   0.354   0.345   0.361
    75.40    0.353   0.343   0.352   0.356   0.364   0.352   0.355   0.362   0.369   0.366   0.368   0.361   0.359   0.361   0.353   0.354   0.356   0.359   0.352   0.349   0.354   0.340   0.342   0.353   0.347   0.344   0.356   0.355   0.349   0.343   0.347   0.352   0.337   0.328   0.328   0.342   0.345   0.363   0.352   0.364   0.363   0.361   0.353   0.351   0.350   0.344   0.332   0.341   0.340   0.351   0.351   0.350   0.349   0.342   0.344   0.353   0.356   0.347   0.348   0.358   0.346   0.347   0.341   0.347   0.363   0.362   0.365   0.361   0.363   0.361   0.357   0.358   0.355   0.354   0.350   0.348   0.361   0.369   0.356   0.356   0.361   0.360   0.365   0.361   0.351   0.362   0.363   0.380   0.372   0.378   0.376   0.374   0.362   0.349   0.351   0.345   0.356   0.350   0.348   0.351   0.341   0.353   0.357   0.343   0.345   0.364   0.375   0.355   0.365   0.363   0.378   0.374   0.369   0.371   0.367   0.356   0.359   0.358   0.366   0.354   0.352   0.348   0.356   0.353   0.353   0.358   0.352   0.359   0.355   0.368   0.344   0.335   0.340   0.349   0.348   0.349   0.355   0.345   0.360   0.352   0.362   0.347   0.353   0.346   0.350   0.340   0.361   0.369   0.364   0.354   0.373   0.371   0.375   0.369   0.355   0.368   0.371   0.365   0.360   0.354   0.364   0.355   0.350   0.352   0.353   0.364   0.349   0.349   0.356   0.345   0.352   0.357   0.366   0.355   0.357   0.352   0.344   0.356   0.357   0.354   0.360   0.353   0.346   0.346   0.359   0.361   0.350   0.350   0.346   0.346   0.353   0.346   0.353
    66.10    0.354   0.344   0.348   0.363   0.360   0.358   0.357   0.373   0.371   0.368   0.361   0.362   0.358   0.355   0.362   0.361   0.353   0.369   0.366   0.363   0.345   0.335   0.339   0.332   0.346   0.338   0.345   0.356   0.354   0.348   0.345   0.359   0.341   0.338   0.343   0.344   0.339   0.350   0.353   0.364   0.360   0.356   0.361   0.342   0.339   0.343   0.337   0.340   0.348   0.361   0.353   0.348   0.360   0.348   0.353   0.352   0.344   0.337   0.342   0.357   0.357   0.348   0.344   0.341   0.349   0.358   0.365   0.359   0.361   0.373   0.371   0.361   0.359   0.344   0.349   0.344   0.353   0.366   0.368   0.353   0.353   0.366   0.362   0.358   0.360   0.357   0.358   0.373   0.380   0.377   0.368   0.367   0.358   0.356   0.341   0.346   0.343   0.345   0.337   0.345   0.351   0.358   0.343   0.342   0.351   0.361   0.372   0.364   0.372   0.360   0.368   0.369   0.362   0.365   0.350   0.354   0.363   0.356   0.348   0.359   0.356   0.359   0.361   0.369   0.368   0.368   0.367   0.351   0.358   0.357   0.336   0.350   0.343   0.348   0.360   0.346   0.342   0.352   0.344   0.350   0.351   0.345   0.337   0.345   0.347   0.344   0.353   0.355   0.357   0.359   0.363   0.369   0.385   0.384   0.378   0.371   0.374   0.362   0.363   0.359   0.362   0.371   0.347   0.353   0.352   0.355   0.346   0.346   0.351   0.358   0.365   0.363   0.372   0.364   0.360   0.352   0.345   0.346   0.357   0.355   0.355   0.357   0.356   0.351   0.345   0.359   0.367   0.371   0.347   0.339   0.348   0.354   0.358
    56.80    0.360   0.350   0.356   0.355   0.362   0.369   0.371   0.367   0.372   0.373   0.361   0.363   0.351   0.358   0.359   0.361   0.366   0.365   0.359   0.348   0.345   0.336   0.352   0.334   0.335   0.354   0.354   0.353   0.354   0.343   0.344   0.347   0.336   0.345   0.343   0.345   0.344   0.358   0.349   0.354   0.346   0.352   0.348   0.340   0.340   0.350   0.350   0.351   0.348   0.347   0.351   0.354   0.357   0.351   0.350   0.350   0.346   0.345   0.348   0.348   0.352   0.344   0.348   0.347   0.348   0.357   0.352   0.365   0.370   0.365   0.354   0.354   0.350   0.347   0.354   0.353   0.365   0.363   0.354   0.359   0.364   0.356   0.351   0.358   0.367   0.365   0.366   0.370   0.374   0.377   0.370   0.355   0.352   0.357   0.342   0.361   0.347   0.341   0.337   0.339   0.349   0.341   0.337   0.339   0.354   0.359   0.368   0.366   0.363   0.361   0.369   0.369   0.354   0.354   0.348   0.352   0.363   0.353   0.344   0.355   0.370   0.370   0.377   0.359   0.371   0.370   0.378   0.353   0.359   0.347   0.346   0.359   0.362   0.365   0.364   0.358   0.344   0.354   0.353   0.349   0.356   0.352   0.341   0.346   0.348   0.343   0.351   0.361   0.360   0.372   0.364   0.364   0.378   0.379   0.378   0.365   0.359   0.364   0.353   0.352   0.351   0.370   0.348   0.355   0.351   0.364   0.362   0.350   0.357   0.360   0.363   0.361   0.361   0.364   0.365   0.359   0.360   0.349   0.350   0.364   0.357   0.370   0.367   0.356   0.349   0.363   0.378   0.369   0.364   0.350   0.363   0.359   0.363
    47.50    0.357   0.354   0.345   0.347   0.362   0.359   0.384   0.368   0.364   0.368   0.361   0.357   0.358   0.351   0.352   0.350   0.351   0.357   0.346   0.350   0.351   0.349   0.355   0.352   0.347   0.346   0.350   0.356   0.348   0.347   0.346   0.358   0.350   0.348   0.360   0.353   0.342   0.350   0.352   0.352   0.358   0.339   0.346   0.325   0.338   0.350   0.349   0.345   0.358   0.350   0.353   0.360   0.359   0.353   0.347   0.348   0.351   0.349   0.359   0.352   0.355   0.347   0.356   0.349   0.343   0.342   0.358   0.359   0.355   0.352   0.341   0.359   0.347   0.361   0.346   0.360   0.354   0.352   0.350   0.367   0.364   0.368   0.370   0.364   0.361   0.357   0.360   0.366   0.375   0.368   0.370   0.362   0.362   0.363   0.341   0.349   0.345   0.343   0.339   0.345   0.343   0.348   0.338   0.346   0.353   0.363   0.361   0.359   0.353   0.363   0.360   0.360   0.362   0.365   0.356   0.340   0.358   0.354   0.352   0.357   0.362   0.365   0.369   0.372   0.350   0.363   0.363   0.363   0.363   0.355   0.365   0.362   0.357   0.357   0.365   0.366   0.350   0.357   0.359   0.356   0.356   0.359   0.366   0.357   0.348   0.354   0.361   0.368   0.373   0.362   0.357   0.351   0.367   0.385   0.389   0.386   0.373   0.366   0.361   0.361   0.361   0.371   0.354   0.355   0.357   0.352   0.365   0.371   0.362   0.358   0.366   0.367   0.363   0.352   0.371   0.361   0.364   0.362   0.350   0.364   0.356   0.372   0.370   0.354   0.347   0.374   0.373   0.369   0.361   0.360   0.362   0.358   0.368
    38.20    0.362   0.351   0.356   0.358   0.356   0.353   0.360   0.359   0.367   0.357   0.359   0.359   0.361   0.351   0.348   0.343   0.336   0.355   0.359   0.345   0.353   0.354   0.353   0.356   0.355   0.355   0.359   0.364   0.369   0.361   0.361   0.351   0.355   0.348   0.345   0.349   0.358   0.362   0.355   0.350   0.355   0.333   0.330   0.324   0.341   0.347   0.348   0.344   0.352   0.350   0.349   0.362   0.362   0.357   0.352   0.349   0.341   0.344   0.362   0.369   0.365   0.348   0.338   0.343   0.347   0.350   0.368   0.359   0.372   0.351   0.336   0.340   0.341   0.352   0.359   0.354   0.353   0.347   0.353   0.365   0.360   0.364   0.365   0.362   0.351   0.359   0.370   0.362   0.357   0.370   0.352   0.358   0.357   0.365   0.365   0.354   0.348   0.338   0.336   0.341   0.351   0.350   0.342   0.339   0.354   0.357   0.361   0.358   0.353   0.347   0.352   0.365   0.370   0.349   0.349   0.326   0.342   0.339   0.358   0.355   0.360   0.373   0.365   0.370   0.376   0.370   0.365   0.362   0.367   0.363   0.366   0.374   0.367   0.355   0.356   0.370   0.360   0.365   0.356   0.360   0.354   0.356   0.351   0.347   0.344   0.356   0.376   0.363   0.371   0.374   0.359   0.354   0.361   0.361   0.365   0.375   0.368   0.352   0.357   0.343   0.361   0.367   0.347   0.357   0.373   0.362   0.356   0.369   0.362   0.364   0.363   0.368   0.360   0.365   0.362   0.362   0.364   0.359   0.370   0.359   0.350   0.356   0.359   0.354   0.363   0.363   0.375   0.369   0.355   0.346   0.351   0.352   0.359
    28.90    0.357   0.347   0.350   0.351   0.371   0.371   0.367   0.367   0.366   0.373   0.353   0.353   0.352   0.354   0.345   0.344   0.344   0.350   0.354   0.351   0.341   0.358   0.351   0.350   0.339   0.354   0.355   0.357   0.361   0.368   0.360   0.356   0.357   0.337   0.340   0.336   0.355   0.366   0.347   0.356   0.350   0.334   0.332   0.331   0.338   0.347   0.334   0.341   0.358   0.359   0.361   0.355   0.368   0.358   0.350   0.336   0.329   0.346   0.366   0.365   0.362   0.347   0.351   0.357   0.347   0.354   0.366   0.375   0.356   0.357   0.339   0.333   0.331   0.352   0.350   0.353   0.358   0.352   0.358   0.356   0.376   0.362   0.370   0.376   0.381   0.381   0.374   0.367   0.360   0.350   0.358   0.355   0.353   0.354   0.360   0.357   0.348   0.331   0.336   0.344   0.346   0.345   0.343   0.352   0.355   0.346   0.353   0.354   0.355   0.356   0.359   0.361   0.360   0.346   0.356   0.346   0.345   0.362   0.354   0.350   0.368   0.363   0.368   0.371   0.377   0.370   0.374   0.381   0.355   0.372   0.364   0.369   0.364   0.353   0.354   0.356   0.361   0.377   0.377   0.374   0.362   0.358   0.344   0.334   0.344   0.353   0.360   0.354   0.371   0.365   0.355   0.354   0.362   0.367   0.353   0.367   0.357   0.360   0.367   0.366   0.365   0.362   0.346   0.360   0.364   0.362   0.342   0.356   0.355   0.363   0.366   0.352   0.351   0.352   0.352   0.365   0.359   0.355   0.363   0.364   0.346   0.349   0.359   0.361   0.363   0.365   0.372   0.360   0.350   0.356   0.348   0.360   0.361
    19.60    0.361   0.350   0.358   0.351   0.361   0.368   0.358   0.354   0.369   0.359   0.358   0.363   0.358   0.356   0.343   0.347   0.342   0.347   0.357   0.364   0.347   0.342   0.349   0.359   0.348   0.347   0.356   0.362   0.355   0.358   0.358   0.356   0.341   0.340   0.351   0.348   0.351   0.345   0.336   0.344   0.335   0.333   0.335   0.332   0.337   0.337   0.344   0.349   0.349   0.355   0.353   0.360   0.362   0.370   0.360   0.348   0.342   0.339   0.353   0.363   0.354   0.345   0.337   0.359   0.358   0.362   0.356   0.363   0.348   0.345   0.351   0.350   0.345   0.355   0.356   0.353   0.366   0.345   0.348   0.358   0.364   0.364   0.372   0.373   0.381   0.387   0.363   0.372   0.360   0.344   0.338   0.337   0.342   0.355   0.342   0.344   0.353   0.350   0.345   0.333   0.341   0.349   0.347   0.351   0.354   0.360   0.359   0.357   0.352   0.358   0.362   0.352   0.350   0.361   0.351   0.351   0.365   0.366   0.359   0.358   0.356   0.369   0.370   0.382   0.366   0.362   0.362   0.361   0.362   0.371   0.366   0.368   0.365   0.364   0.350   0.350   0.354   0.365   0.385   0.377   0.370   0.363   0.354   0.352   0.344   0.341   0.349   0.347   0.351   0.361   0.358   0.355   0.352   0.359   0.350   0.372   0.376   0.362   0.365   0.369   0.368   0.355   0.344   0.357   0.348   0.355   0.349   0.346   0.336   0.351   0.351   0.350   0.352   0.343   0.354   0.354   0.360   0.352   0.361   0.357   0.351   0.348   0.362   0.359   0.361   0.360   0.361   0.356   0.350   0.346   0.346   0.346   0.360
    10.30    0.352   0.357   0.349   0.359   0.358   0.362   0.347   0.356   0.352   0.355   0.352   0.362   0.369   0.366   0.355   0.351   0.343   0.342   0.346   0.352   0.351   0.338   0.340   0.357   0.350   0.348   0.352   0.354   0.354   0.348   0.347   0.347   0.338   0.349   0.345   0.339   0.346   0.338   0.335   0.338   0.337   0.339   0.342   0.341   0.341   0.341   0.350   0.355   0.360   0.366   0.361   0.353   0.357   0.370   0.358   0.347   0.349   0.341   0.359   0.370   0.363   0.363   0.360   0.357   0.362   0.359   0.351   0.351   0.349   0.348   0.346   0.349   0.346   0.344   0.355   0.347   0.362   0.361   0.353   0.363   0.366   0.368   0.369   0.355   0.359   0.365   0.360   0.364   0.358   0.348   0.347   0.354   0.357   0.361   0.355   0.350   0.351   0.354   0.342   0.350   0.335   0.350   0.357   0.359   0.350   0.354   0.362   0.352   0.350   0.353   0.363   0.344   0.349   0.359   0.357   0.357   0.356   0.365   0.364   0.361   0.373   0.363   0.369   0.366   0.361   0.367   0.369   0.358   0.360   0.380   0.378   0.358   0.367   0.364   0.348   0.350   0.357   0.352   0.363   0.373   0.376   0.369   0.349   0.349   0.347   0.345   0.332   0.338   0.339   0.350   0.351   0.347   0.342   0.357   0.362   0.358   0.362   0.351   0.351   0.363   0.366   0.357   0.362   0.347   0.350   0.348   0.365   0.346   0.357   0.346   0.344   0.356   0.345   0.368   0.364   0.364   0.361   0.364   0.353   0.372   0.357   0.364   0.358   0.357   0.355   0.354   0.361   0.344   0.347   0.357   0.347   0.353   0.334
     1.00    0.356   0.357   0.344   0.354   0.350   0.353   0.352   0.351   0.351   0.357   0.365   0.358   0.353   0.364   0.363   0.346   0.353   0.353   0.357   0.350   0.344   0.348   0.357   0.352   0.351   0.350   0.355   0.347   0.344   0.349   0.353   0.360   0.345   0.342   0.346   0.344   0.341   0.334   0.327   0.345   0.343   0.332   0.335   0.332   0.345   0.361   0.355   0.348   0.359   0.368   0.359   0.360   0.364   0.364   0.363   0.367   0.363   0.362   0.357   0.360   0.363   0.358   0.363   0.353   0.363   0.360   0.359   0.359   0.349   0.352   0.340   0.339   0.359   0.354   0.345   0.348   0.363   0.369   0.346   0.356   0.361   0.360   0.367   0.375   0.361   0.362   0.369   0.368   0.359   0.355   0.355   0.346   0.359   0.354   0.345   0.346   0.357   0.345   0.357   0.349   0.344   0.347   0.345   0.353   0.361   0.360   0.366   0.349   0.356   0.364   0.362   0.364   0.355   0.362   0.356   0.362   0.357   0.363   0.363   0.361   0.370   0.364   0.371   0.363   0.365   0.374   0.364   0.374   0.384   0.375   0.364   0.362   0.362   0.372   0.354   0.362   0.371   0.360   0.350   0.352   0.361   0.360   0.350   0.348   0.350   0.340   0.335   0.339   0.347   0.357   0.354   0.345   0.357   0.364   0.362   0.364   0.367   0.367   0.344   0.351   0.343   0.353   0.361   0.350   0.354   0.347   0.351   0.361   0.363   0.350   0.352   0.365   0.360   0.370   0.366   0.367   0.357   0.363   0.360   0.365   0.356   0.356   0.353   0.349   0.354   0.354   0.360   0.353   0.350   0.351   0.350   0.349   0.350

   Mean standard deviation across all grid points:
      u component:    0.696 m/s
      v component:    0.587 m/s
      w component:    0.355 m/s


U-component (X) statistics from the interpolated hub point:

   Mean =   9.7063 m/s
   TI   =   7.9339 %


Processing complete.  2.10790E+05 CPU seconds used.
